
#######################################################################
#
#                 Cambridge Crystallographic Data Centre
#                                CCDC 
#
#######################################################################
#
# If this CIF has been generated from an entry in the Cambridge 
# Structural Database, then it will include bibliographic, chemical, 
# crystal, experimental, refinement or atomic coordinate data resulting 
# from the CCDC's data processing and validation procedures.
#
#######################################################################

data_shelx
_symmetry_cell_setting           monoclinic
_symmetry_space_group_name_H-M   'P 21/n'
_symmetry_Int_Tables_number      14
_space_group_name_Hall           '-P 2yn'
loop_
_symmetry_equiv_pos_site_id
_symmetry_equiv_pos_as_xyz
1 x,y,z
2 1/2-x,1/2+y,1/2-z
3 -x,-y,-z
4 1/2+x,1/2-y,1/2+z
_cell_length_a                   14.5415(18)
_cell_length_b                   5.0163(6)
_cell_length_c                   14.8807(18)
_cell_angle_alpha                90
_cell_angle_beta                 100.551(2)
_cell_angle_gamma                90
_cell_volume                     1067.11
loop_
_atom_site_label
_atom_site_type_symbol
_atom_site_fract_x
_atom_site_fract_y
_atom_site_fract_z
O1 O 0.39327(6) 0.5473(2) 0.34390(6)
H1 H 0.440929 0.455631 0.364069
N1 N 0.56469(7) 0.3739(2) 0.35545(7)
C1 C 0.41224(8) 0.7146(2) 0.27840(8)
C2 C 0.34268(9) 0.8855(3) 0.23568(9)
H2 H 0.282749 0.882682 0.252527
N2 N 0.76959(8) -0.0779(2) 0.37402(8)
C4 C 0.44701(9) 1.0710(2) 0.14194(8)
C3 C 0.35998(9) 1.0590(3) 0.16901(9)
H3 H 0.311330 1.173935 0.140580
C6 C 0.50053(8) 0.7192(2) 0.25215(8)
C5 C 0.51552(8) 0.8989(3) 0.18422(8)
H5 H 0.575093 0.902495 0.166608
C7 C 0.57480(9) 0.5404(3) 0.29252(8)
H7 H 0.632799 0.546467 0.271811
C9 C 0.70510(9) 0.1066(3) 0.34277(9)
H9 H 0.706458 0.184943 0.284910
C8 C 0.63599(8) 0.1903(3) 0.39031(8)
C10 C 0.76621(9) -0.1853(3) 0.45573(9)
H10 H 0.811672 -0.315650 0.479221
C11 C 0.70039(10) -0.1170(3) 0.50765(9)
H11 H 0.700578 -0.199433 0.565163
C12 C 0.63415(9) 0.0734(3) 0.47449(9)
H12 H 0.587951 0.123680 0.508878
C13 C 0.46406(10) 1.2655(3) 0.06959(9)
H13A H 0.437178 1.195084 0.009044
H13B H 0.531517 1.291424 0.073856
H13C H 0.434566 1.436541 0.078821
O1 O 0.39327(6) 0.5473(2) 1.34390(6)
H1 H 0.440929 0.455631 1.364069
N1 N 0.56469(7) 0.3739(2) 1.35545(7)
C1 C 0.41224(8) 0.7146(2) 1.27840(8)
C2 C 0.34268(9) 0.8855(3) 1.23568(9)
H2 H 0.282749 0.882682 1.252527
N2 N 0.76959(8) -0.0779(2) 1.37402(8)
C4 C 0.44701(9) 1.0710(2) 1.14194(8)
C3 C 0.35998(9) 1.0590(3) 1.16901(9)
H3 H 0.311330 1.173935 1.140580
C6 C 0.50053(8) 0.7192(2) 1.25215(8)
C5 C 0.51552(8) 0.8989(3) 1.18422(8)
H5 H 0.575093 0.902495 1.166608
C7 C 0.57480(9) 0.5404(3) 1.29252(8)
H7 H 0.632799 0.546467 1.271811
C9 C 0.70510(9) 0.1066(3) 1.34277(9)
H9 H 0.706458 0.184943 1.284910
C8 C 0.63599(8) 0.1903(3) 1.39031(8)
C10 C 0.76621(9) -0.1853(3) 1.45573(9)
H10 H 0.811672 -0.315650 1.479221
C11 C 0.70039(10) -0.1170(3) 1.50765(9)
H11 H 0.700578 -0.199433 1.565163
C12 C 0.63415(9) 0.0734(3) 1.47449(9)
H12 H 0.587951 0.123680 1.508878
C13 C 0.46406(10) 1.2655(3) 1.06959(9)
H13A H 0.437178 1.195084 1.009044
H13B H 0.531517 1.291424 1.073856
H13C H 0.434566 1.436541 1.078821
O1 O 1.10673(6) 0.0473(2) 0.15610(6)
H1 H 1.059071 -0.044369 0.135931
N1 N 0.93531(7) -0.1261(2) 0.14455(7)
C1 C 1.08776(8) 0.2146(2) 0.22160(8)
C2 C 1.15732(9) 0.3855(3) 0.26432(9)
H2 H 1.217251 0.382682 0.247473
N2 N 0.73041(8) -0.5779(2) 0.12598(8)
C4 C 1.05299(9) 0.5710(2) 0.35806(8)
C3 C 1.14002(9) 0.5590(3) 0.33099(9)
H3 H 1.188670 0.673935 0.359420
C6 C 0.99947(8) 0.2192(2) 0.24785(8)
C5 C 0.98448(8) 0.3989(3) 0.31578(8)
H5 H 0.924907 0.402495 0.333392
C7 C 0.92520(9) 0.0404(3) 0.20748(8)
H7 H 0.867201 0.046467 0.228189
C9 C 0.79490(9) -0.3934(3) 0.15723(9)
H9 H 0.793542 -0.315057 0.215090
C8 C 0.86401(8) -0.3097(3) 0.10969(8)
C10 C 0.73379(9) -0.6853(3) 0.04427(9)
H10 H 0.688328 -0.815650 0.020779
C11 C 0.79961(10) -0.6170(3) -0.00765(9)
H11 H 0.799422 -0.699433 -0.065163
C12 C 0.86585(9) -0.4266(3) 0.02551(9)
H12 H 0.912049 -0.376320 -0.008878
C13 C 1.03594(10) 0.7655(3) 0.43041(9)
H13A H 1.062822 0.695084 0.490956
H13B H 0.968483 0.791424 0.426144
H13C H 1.065434 0.936541 0.421179
O1 O 1.10673(6) 0.0473(2) 1.15610(6)
H1 H 1.059071 -0.044369 1.135931
N1 N 0.93531(7) -0.1261(2) 1.14455(7)
C1 C 1.08776(8) 0.2146(2) 1.22160(8)
C2 C 1.15732(9) 0.3855(3) 1.26432(9)
H2 H 1.217251 0.382682 1.247473
N2 N 0.73041(8) -0.5779(2) 1.12598(8)
C4 C 1.05299(9) 0.5710(2) 1.35806(8)
C3 C 1.14002(9) 0.5590(3) 1.33099(9)
H3 H 1.188670 0.673935 1.359420
C6 C 0.99947(8) 0.2192(2) 1.24785(8)
C5 C 0.98448(8) 0.3989(3) 1.31578(8)
H5 H 0.924907 0.402495 1.333392
C7 C 0.92520(9) 0.0404(3) 1.20748(8)
H7 H 0.867201 0.046467 1.228189
C9 C 0.79490(9) -0.3934(3) 1.15723(9)
H9 H 0.793542 -0.315057 1.215090
C8 C 0.86401(8) -0.3097(3) 1.10969(8)
C10 C 0.73379(9) -0.6853(3) 1.04427(9)
H10 H 0.688328 -0.815650 1.020779
C11 C 0.79961(10) -0.6170(3) 0.99235(9)
H11 H 0.799422 -0.699433 0.934837
C12 C 0.86585(9) -0.4266(3) 1.02551(9)
H12 H 0.912049 -0.376320 0.991122
C13 C 1.03594(10) 0.7655(3) 1.43041(9)
H13A H 1.062822 0.695084 1.490956
H13B H 0.968483 0.791424 1.426144
H13C H 1.065434 0.936541 1.421179
O1 O 1.10673(6) 1.0473(2) 0.15610(6)
H1 H 1.059071 0.955631 0.135931
N1 N 0.93531(7) 0.8739(2) 0.14455(7)
C1 C 1.08776(8) 1.2146(2) 0.22160(8)
C2 C 1.15732(9) 1.3855(3) 0.26432(9)
H2 H 1.217251 1.382682 0.247473
N2 N 0.73041(8) 0.4221(2) 0.12598(8)
C4 C 1.05299(9) 1.5710(2) 0.35806(8)
C3 C 1.14002(9) 1.5590(3) 0.33099(9)
H3 H 1.188670 1.673935 0.359420
C6 C 0.99947(8) 1.2192(2) 0.24785(8)
C5 C 0.98448(8) 1.3989(3) 0.31578(8)
H5 H 0.924907 1.402495 0.333392
C7 C 0.92520(9) 1.0404(3) 0.20748(8)
H7 H 0.867201 1.046467 0.228189
C9 C 0.79490(9) 0.6066(3) 0.15723(9)
H9 H 0.793542 0.684943 0.215090
C8 C 0.86401(8) 0.6903(3) 0.10969(8)
C10 C 0.73379(9) 0.3147(3) 0.04427(9)
H10 H 0.688328 0.184350 0.020779
C11 C 0.79961(10) 0.3830(3) -0.00765(9)
H11 H 0.799422 0.300567 -0.065163
C12 C 0.86585(9) 0.5734(3) 0.02551(9)
H12 H 0.912049 0.623680 -0.008878
C13 C 1.03594(10) 1.7655(3) 0.43041(9)
H13A H 1.062822 1.695084 0.490956
H13B H 0.968483 1.791424 0.426144
H13C H 1.065434 1.936541 0.421179
O1 O 1.10673(6) 1.0473(2) 1.15610(6)
H1 H 1.059071 0.955631 1.135931
N1 N 0.93531(7) 0.8739(2) 1.14455(7)
C1 C 1.08776(8) 1.2146(2) 1.22160(8)
C2 C 1.15732(9) 1.3855(3) 1.26432(9)
H2 H 1.217251 1.382682 1.247473
N2 N 0.73041(8) 0.4221(2) 1.12598(8)
C4 C 1.05299(9) 1.5710(2) 1.35806(8)
C3 C 1.14002(9) 1.5590(3) 1.33099(9)
H3 H 1.188670 1.673935 1.359420
C6 C 0.99947(8) 1.2192(2) 1.24785(8)
C5 C 0.98448(8) 1.3989(3) 1.31578(8)
H5 H 0.924907 1.402495 1.333392
C7 C 0.92520(9) 1.0404(3) 1.20748(8)
H7 H 0.867201 1.046467 1.228189
C9 C 0.79490(9) 0.6066(3) 1.15723(9)
H9 H 0.793542 0.684943 1.215090
C8 C 0.86401(8) 0.6903(3) 1.10969(8)
C10 C 0.73379(9) 0.3147(3) 1.04427(9)
H10 H 0.688328 0.184350 1.020779
C11 C 0.79961(10) 0.3830(3) 0.99235(9)
H11 H 0.799422 0.300567 0.934837
C12 C 0.86585(9) 0.5734(3) 1.02551(9)
H12 H 0.912049 0.623680 0.991122
C13 C 1.03594(10) 1.7655(3) 1.43041(9)
H13A H 1.062822 1.695084 1.490956
H13B H 0.968483 1.791424 1.426144
H13C H 1.065434 1.936541 1.421179
O1 O 0.60673(6) 0.4527(2) 0.65610(6)
H1 H 0.559071 0.544369 0.635931
N1 N 0.43531(7) 0.6261(2) 0.64455(7)
C1 C 0.58776(8) 0.2854(2) 0.72160(8)
C2 C 0.65732(9) 0.1145(3) 0.76432(9)
H2 H 0.717251 0.117318 0.747473
N2 N 0.23041(8) 1.0779(2) 0.62598(8)
C4 C 0.55299(9) -0.0710(2) 0.85806(8)
C3 C 0.64002(9) -0.0590(3) 0.83099(9)
H3 H 0.688670 -0.173935 0.859420
C6 C 0.49947(8) 0.2808(2) 0.74785(8)
C5 C 0.48448(8) 0.1011(3) 0.81578(8)
H5 H 0.424907 0.097505 0.833392
C7 C 0.42520(9) 0.4596(3) 0.70748(8)
H7 H 0.367201 0.453533 0.728189
C9 C 0.29490(9) 0.8934(3) 0.65723(9)
H9 H 0.293542 0.815057 0.715090
C8 C 0.36401(8) 0.8097(3) 0.60969(8)
C10 C 0.23379(9) 1.1853(3) 0.54427(9)
H10 H 0.188328 1.315650 0.520779
C11 C 0.29961(10) 1.1170(3) 0.49235(9)
H11 H 0.299422 1.199433 0.434837
C12 C 0.36585(9) 0.9266(3) 0.52551(9)
H12 H 0.412049 0.876320 0.491122
C13 C 0.53594(10) -0.2655(3) 0.93041(9)
H13A H 0.562822 -0.195084 0.990956
H13B H 0.468483 -0.291424 0.926144
H13C H 0.565434 -0.436541 0.921179
O1 O 0.60673(6) 1.4527(2) 0.65610(6)
H1 H 0.559071 1.544369 0.635931
N1 N 0.43531(7) 1.6261(2) 0.64455(7)
C1 C 0.58776(8) 1.2854(2) 0.72160(8)
C2 C 0.65732(9) 1.1145(3) 0.76432(9)
H2 H 0.717251 1.117318 0.747473
N2 N 0.23041(8) 2.0779(2) 0.62598(8)
C4 C 0.55299(9) 0.9290(2) 0.85806(8)
C3 C 0.64002(9) 0.9410(3) 0.83099(9)
H3 H 0.688670 0.826065 0.859420
C6 C 0.49947(8) 1.2808(2) 0.74785(8)
C5 C 0.48448(8) 1.1011(3) 0.81578(8)
H5 H 0.424907 1.097505 0.833392
C7 C 0.42520(9) 1.4596(3) 0.70748(8)
H7 H 0.367201 1.453533 0.728189
C9 C 0.29490(9) 1.8934(3) 0.65723(9)
H9 H 0.293542 1.815057 0.715090
C8 C 0.36401(8) 1.8097(3) 0.60969(8)
C10 C 0.23379(9) 2.1853(3) 0.54427(9)
H10 H 0.188328 2.315650 0.520779
C11 C 0.29961(10) 2.1170(3) 0.49235(9)
H11 H 0.299422 2.199433 0.434837
C12 C 0.36585(9) 1.9266(3) 0.52551(9)
H12 H 0.412049 1.876320 0.491122
C13 C 0.53594(10) 0.7345(3) 0.93041(9)
H13A H 0.562822 0.804916 0.990956
H13B H 0.468483 0.708576 0.926144
H13C H 0.565434 0.563459 0.921179
O1 O 1.60673(6) 0.4527(2) 0.65610(6)
H1 H 1.559071 0.544369 0.635931
N1 N 1.43531(7) 0.6261(2) 0.64455(7)
C1 C 1.58776(8) 0.2854(2) 0.72160(8)
C2 C 1.65732(9) 0.1145(3) 0.76432(9)
H2 H 1.717251 0.117318 0.747473
N2 N 1.23041(8) 1.0779(2) 0.62598(8)
C4 C 1.55299(9) -0.0710(2) 0.85806(8)
C3 C 1.64002(9) -0.0590(3) 0.83099(9)
H3 H 1.688670 -0.173935 0.859420
C6 C 1.49947(8) 0.2808(2) 0.74785(8)
C5 C 1.48448(8) 0.1011(3) 0.81578(8)
H5 H 1.424907 0.097505 0.833392
C7 C 1.42520(9) 0.4596(3) 0.70748(8)
H7 H 1.367201 0.453533 0.728189
C9 C 1.29490(9) 0.8934(3) 0.65723(9)
H9 H 1.293542 0.815057 0.715090
C8 C 1.36401(8) 0.8097(3) 0.60969(8)
C10 C 1.23379(9) 1.1853(3) 0.54427(9)
H10 H 1.188328 1.315650 0.520779
C11 C 1.29961(10) 1.1170(3) 0.49235(9)
H11 H 1.299422 1.199433 0.434837
C12 C 1.36585(9) 0.9266(3) 0.52551(9)
H12 H 1.412049 0.876320 0.491122
C13 C 1.53594(10) -0.2655(3) 0.93041(9)
H13A H 1.562822 -0.195084 0.990956
H13B H 1.468483 -0.291424 0.926144
H13C H 1.565434 -0.436541 0.921179
O1 O 1.60673(6) 1.4527(2) 0.65610(6)
H1 H 1.559071 1.544369 0.635931
N1 N 1.43531(7) 1.6261(2) 0.64455(7)
C1 C 1.58776(8) 1.2854(2) 0.72160(8)
C2 C 1.65732(9) 1.1145(3) 0.76432(9)
H2 H 1.717251 1.117318 0.747473
N2 N 1.23041(8) 2.0779(2) 0.62598(8)
C4 C 1.55299(9) 0.9290(2) 0.85806(8)
C3 C 1.64002(9) 0.9410(3) 0.83099(9)
H3 H 1.688670 0.826065 0.859420
C6 C 1.49947(8) 1.2808(2) 0.74785(8)
C5 C 1.48448(8) 1.1011(3) 0.81578(8)
H5 H 1.424907 1.097505 0.833392
C7 C 1.42520(9) 1.4596(3) 0.70748(8)
H7 H 1.367201 1.453533 0.728189
C9 C 1.29490(9) 1.8934(3) 0.65723(9)
H9 H 1.293542 1.815057 0.715090
C8 C 1.36401(8) 1.8097(3) 0.60969(8)
C10 C 1.23379(9) 2.1853(3) 0.54427(9)
H10 H 1.188328 2.315650 0.520779
C11 C 1.29961(10) 2.1170(3) 0.49235(9)
H11 H 1.299422 2.199433 0.434837
C12 C 1.36585(9) 1.9266(3) 0.52551(9)
H12 H 1.412049 1.876320 0.491122
C13 C 1.53594(10) 0.7345(3) 0.93041(9)
H13A H 1.562822 0.804916 0.990956
H13B H 1.468483 0.708576 0.926144
H13C H 1.565434 0.563459 0.921179
O1 O -0.10673(6) 0.9527(2) 0.84390(6)
H1 H -0.059071 1.044369 0.864069
N1 N 0.06469(7) 1.1261(2) 0.85545(7)
C1 C -0.08776(8) 0.7854(2) 0.77840(8)
C2 C -0.15732(9) 0.6145(3) 0.73568(9)
H2 H -0.217251 0.617318 0.752527
N2 N 0.26959(8) 1.5779(2) 0.87402(8)
C4 C -0.05299(9) 0.4290(2) 0.64194(8)
C3 C -0.14002(9) 0.4410(3) 0.66901(9)
H3 H -0.188670 0.326065 0.640580
C6 C 0.00053(8) 0.7808(2) 0.75215(8)
C5 C 0.01552(8) 0.6011(3) 0.68422(8)
H5 H 0.075093 0.597505 0.666608
C7 C 0.07480(9) 0.9596(3) 0.79252(8)
H7 H 0.132799 0.953533 0.771811
C9 C 0.20510(9) 1.3934(3) 0.84277(9)
H9 H 0.206458 1.315057 0.784910
C8 C 0.13599(8) 1.3097(3) 0.89031(8)
C10 C 0.26621(9) 1.6853(3) 0.95573(9)
H10 H 0.311672 1.815650 0.979221
C11 C 0.20039(10) 1.6170(3) 1.00765(9)
H11 H 0.200578 1.699433 1.065163
C12 C 0.13415(9) 1.4266(3) 0.97449(9)
H12 H 0.087951 1.376320 1.008878
C13 C -0.03594(10) 0.2345(3) 0.56959(9)
H13A H -0.062822 0.304916 0.509044
H13B H 0.031517 0.208576 0.573856
H13C H -0.065434 0.063459 0.578821
O1 O 0.89327(6) 0.9527(2) 0.84390(6)
H1 H 0.940929 1.044369 0.864069
N1 N 1.06469(7) 1.1261(2) 0.85545(7)
C1 C 0.91224(8) 0.7854(2) 0.77840(8)
C2 C 0.84268(9) 0.6145(3) 0.73568(9)
H2 H 0.782749 0.617318 0.752527
N2 N 1.26959(8) 1.5779(2) 0.87402(8)
C4 C 0.94701(9) 0.4290(2) 0.64194(8)
C3 C 0.85998(9) 0.4410(3) 0.66901(9)
H3 H 0.811330 0.326065 0.640580
C6 C 1.00053(8) 0.7808(2) 0.75215(8)
C5 C 1.01552(8) 0.6011(3) 0.68422(8)
H5 H 1.075093 0.597505 0.666608
C7 C 1.07480(9) 0.9596(3) 0.79252(8)
H7 H 1.132799 0.953533 0.771811
C9 C 1.20510(9) 1.3934(3) 0.84277(9)
H9 H 1.206458 1.315057 0.784910
C8 C 1.13599(8) 1.3097(3) 0.89031(8)
C10 C 1.26621(9) 1.6853(3) 0.95573(9)
H10 H 1.311672 1.815650 0.979221
C11 C 1.20039(10) 1.6170(3) 1.00765(9)
H11 H 1.200578 1.699433 1.065163
C12 C 1.13415(9) 1.4266(3) 0.97449(9)
H12 H 1.087951 1.376320 1.008878
C13 C 0.96406(10) 0.2345(3) 0.56959(9)
H13A H 0.937178 0.304916 0.509044
H13B H 1.031517 0.208576 0.573856
H13C H 0.934566 0.063459 0.578821

#END
