
#######################################################################
#
#                 Cambridge Crystallographic Data Centre
#                                CCDC 
#
#######################################################################
#
# If this CIF has been generated from an entry in the Cambridge 
# Structural Database, then it will include bibliographic, chemical, 
# crystal, experimental, refinement or atomic coordinate data resulting 
# from the CCDC's data processing and validation procedures.
#
#######################################################################

data_shelx_CCDC17
_symmetry_cell_setting           monoclinic
_symmetry_space_group_name_H-M   'P 21/c'
_symmetry_Int_Tables_number      14
_space_group_name_Hall           '-P 2ybc'
loop_
_symmetry_equiv_pos_site_id
_symmetry_equiv_pos_as_xyz
1 x,y,z
2 -x,1/2+y,1/2-z
3 -x,-y,-z
4 x,1/2-y,1/2+z
_cell_length_a                   3.82640(10)
_cell_length_b                   20.7111(7)
_cell_length_c                   21.2587(8)
_cell_angle_alpha                90
_cell_angle_beta                 93.890(2)
_cell_angle_gamma                90
_cell_volume                     1680.85
loop_
_atom_site_label
_atom_site_type_symbol
_atom_site_fract_x
_atom_site_fract_y
_atom_site_fract_z
Br1 Br 0.21983(6) 0.82950(2) 0.10755(2)
H1 H 0.181(6) 0.5836(11) 0.1746(11)
O1 O -0.2830(4) 0.57021(7) 0.00844(7)
H1A H -0.235114 0.540632 0.034661
C1 C -0.1658(5) 0.62743(10) 0.03270(9)
C8 C 0.0335(5) 0.46595(10) 0.15608(9)
C7 C 0.0606(5) 0.57684(10) 0.13416(9)
C6 C -0.0022(5) 0.63275(10) 0.09407(9)
C5 C 0.1078(5) 0.69373(10) 0.11635(9)
H5 H 0.214164 0.698157 0.157814
N1 N -0.0345(4) 0.51988(8) 0.11637(8)
N3 N -0.0538(5) 0.35185(9) 0.16636(9)
C3 C -0.0953(5) 0.74145(10) 0.01753(10)
H3 H -0.123054 0.778580 -0.008569
C10 C 0.1161(6) 0.35342(11) 0.22356(10)
H10 H 0.141667 0.314624 0.247270
C9 C -0.0937(5) 0.40685(10) 0.13340(10)
H9 H -0.213998 0.405405 0.092836
C11 C 0.2546(6) 0.40984(11) 0.24884(10)
H11 H 0.374907 0.409668 0.289429
C12 C 0.2181(5) 0.46675(10) 0.21500(10)
H12 H 0.317056 0.505756 0.231596
C2 C -0.2103(6) 0.68226(11) -0.00471(10)
H2 H -0.320956 0.678822 -0.045950
C4 C 0.0617(5) 0.74694(10) 0.07828(10)
Br1 Br 0.21983(6) 0.82950(2) 1.10755(2)
H1 H 0.181(6) 0.5836(11) 1.1746(11)
O1 O -0.2830(4) 0.57021(7) 1.00844(7)
H1A H -0.235114 0.540632 1.034661
C1 C -0.1658(5) 0.62743(10) 1.03270(9)
C8 C 0.0335(5) 0.46595(10) 1.15608(9)
C7 C 0.0606(5) 0.57684(10) 1.13416(9)
C6 C -0.0022(5) 0.63275(10) 1.09407(9)
C5 C 0.1078(5) 0.69373(10) 1.11635(9)
H5 H 0.214164 0.698157 1.157814
N1 N -0.0345(4) 0.51988(8) 1.11637(8)
N3 N -0.0538(5) 0.35185(9) 1.16636(9)
C3 C -0.0953(5) 0.74145(10) 1.01753(10)
H3 H -0.123054 0.778580 0.991431
C10 C 0.1161(6) 0.35342(11) 1.22356(10)
H10 H 0.141667 0.314624 1.247270
C9 C -0.0937(5) 0.40685(10) 1.13340(10)
H9 H -0.213998 0.405405 1.092836
C11 C 0.2546(6) 0.40984(11) 1.24884(10)
H11 H 0.374907 0.409668 1.289429
C12 C 0.2181(5) 0.46675(10) 1.21500(10)
H12 H 0.317056 0.505756 1.231596
C2 C -0.2103(6) 0.68226(11) 0.99529(10)
H2 H -0.320956 0.678822 0.954050
C4 C 0.0617(5) 0.74694(10) 1.07828(10)
Br1 Br 1.21983(6) 0.82950(2) 0.10755(2)
H1 H 1.181(6) 0.5836(11) 0.1746(11)
O1 O 0.7170(4) 0.57021(7) 0.00844(7)
H1A H 0.764886 0.540632 0.034661
C1 C 0.8342(5) 0.62743(10) 0.03270(9)
C8 C 1.0335(5) 0.46595(10) 0.15608(9)
C7 C 1.0606(5) 0.57684(10) 0.13416(9)
C6 C 0.9978(5) 0.63275(10) 0.09407(9)
C5 C 1.1078(5) 0.69373(10) 0.11635(9)
H5 H 1.214164 0.698157 0.157814
N1 N 0.9655(4) 0.51988(8) 0.11637(8)
N3 N 0.9462(5) 0.35185(9) 0.16636(9)
C3 C 0.9047(5) 0.74145(10) 0.01753(10)
H3 H 0.876946 0.778580 -0.008569
C10 C 1.1161(6) 0.35342(11) 0.22356(10)
H10 H 1.141667 0.314624 0.247270
C9 C 0.9063(5) 0.40685(10) 0.13340(10)
H9 H 0.786002 0.405405 0.092836
C11 C 1.2546(6) 0.40984(11) 0.24884(10)
H11 H 1.374907 0.409668 0.289429
C12 C 1.2181(5) 0.46675(10) 0.21500(10)
H12 H 1.317056 0.505756 0.231596
C2 C 0.7897(6) 0.68226(11) -0.00471(10)
H2 H 0.679044 0.678822 -0.045950
C4 C 1.0617(5) 0.74694(10) 0.07828(10)
Br1 Br 1.21983(6) 0.82950(2) 1.10755(2)
H1 H 1.181(6) 0.5836(11) 1.1746(11)
O1 O 0.7170(4) 0.57021(7) 1.00844(7)
H1A H 0.764886 0.540632 1.034661
C1 C 0.8342(5) 0.62743(10) 1.03270(9)
C8 C 1.0335(5) 0.46595(10) 1.15608(9)
C7 C 1.0606(5) 0.57684(10) 1.13416(9)
C6 C 0.9978(5) 0.63275(10) 1.09407(9)
C5 C 1.1078(5) 0.69373(10) 1.11635(9)
H5 H 1.214164 0.698157 1.157814
N1 N 0.9655(4) 0.51988(8) 1.11637(8)
N3 N 0.9462(5) 0.35185(9) 1.16636(9)
C3 C 0.9047(5) 0.74145(10) 1.01753(10)
H3 H 0.876946 0.778580 0.991431
C10 C 1.1161(6) 0.35342(11) 1.22356(10)
H10 H 1.141667 0.314624 1.247270
C9 C 0.9063(5) 0.40685(10) 1.13340(10)
H9 H 0.786002 0.405405 1.092836
C11 C 1.2546(6) 0.40984(11) 1.24884(10)
H11 H 1.374907 0.409668 1.289429
C12 C 1.2181(5) 0.46675(10) 1.21500(10)
H12 H 1.317056 0.505756 1.231596
C2 C 0.7897(6) 0.68226(11) 0.99529(10)
H2 H 0.679044 0.678822 0.954050
C4 C 1.0617(5) 0.74694(10) 1.07828(10)
Br1 Br 0.78017(6) 0.32950(2) 0.39245(2)
H1 H 0.819(6) 0.0836(11) 0.3254(11)
O1 O 1.2830(4) 0.07021(7) 0.49156(7)
H1A H 1.235114 0.040632 0.465339
C1 C 1.1658(5) 0.12743(10) 0.46730(9)
C8 C 0.9665(5) -0.03405(10) 0.34392(9)
C7 C 0.9394(5) 0.07684(10) 0.36584(9)
C6 C 1.0022(5) 0.13275(10) 0.40593(9)
C5 C 0.8922(5) 0.19373(10) 0.38365(9)
H5 H 0.785836 0.198157 0.342186
N1 N 1.0345(4) 0.01988(8) 0.38363(8)
N3 N 1.0538(5) -0.14815(9) 0.33364(9)
C3 C 1.0953(5) 0.24145(10) 0.48247(10)
H3 H 1.123054 0.278580 0.508569
C10 C 0.8839(6) -0.14658(11) 0.27644(10)
H10 H 0.858333 -0.185376 0.252730
C9 C 1.0937(5) -0.09315(10) 0.36660(10)
H9 H 1.213998 -0.094595 0.407164
C11 C 0.7454(6) -0.09016(11) 0.25116(10)
H11 H 0.625093 -0.090332 0.210571
C12 C 0.7819(5) -0.03325(10) 0.28500(10)
H12 H 0.682944 0.005756 0.268404
C2 C 1.2103(6) 0.18226(11) 0.50471(10)
H2 H 1.320956 0.178822 0.545950
C4 C 0.9383(5) 0.24694(10) 0.42172(10)
Br1 Br 0.78017(6) 0.32950(2) 1.39245(2)
H1 H 0.819(6) 0.0836(11) 1.3254(11)
O1 O 1.2830(4) 0.07021(7) 1.49156(7)
H1A H 1.235114 0.040632 1.465339
C1 C 1.1658(5) 0.12743(10) 1.46730(9)
C8 C 0.9665(5) -0.03405(10) 1.34392(9)
C7 C 0.9394(5) 0.07684(10) 1.36584(9)
C6 C 1.0022(5) 0.13275(10) 1.40593(9)
C5 C 0.8922(5) 0.19373(10) 1.38365(9)
H5 H 0.785836 0.198157 1.342186
N1 N 1.0345(4) 0.01988(8) 1.38363(8)
N3 N 1.0538(5) -0.14815(9) 1.33364(9)
C3 C 1.0953(5) 0.24145(10) 1.48247(10)
H3 H 1.123054 0.278580 1.508569
C10 C 0.8839(6) -0.14658(11) 1.27644(10)
H10 H 0.858333 -0.185376 1.252730
C9 C 1.0937(5) -0.09315(10) 1.36660(10)
H9 H 1.213998 -0.094595 1.407164
C11 C 0.7454(6) -0.09016(11) 1.25116(10)
H11 H 0.625093 -0.090332 1.210571
C12 C 0.7819(5) -0.03325(10) 1.28500(10)
H12 H 0.682944 0.005756 1.268404
C2 C 1.2103(6) 0.18226(11) 1.50471(10)
H2 H 1.320956 0.178822 1.545950
C4 C 0.9383(5) 0.24694(10) 1.42172(10)
Br1 Br 0.78017(6) 1.32950(2) 0.39245(2)
H1 H 0.819(6) 1.0836(11) 0.3254(11)
O1 O 1.2830(4) 1.07021(7) 0.49156(7)
H1A H 1.235114 1.040632 0.465339
C1 C 1.1658(5) 1.12743(10) 0.46730(9)
C8 C 0.9665(5) 0.96595(10) 0.34392(9)
C7 C 0.9394(5) 1.07684(10) 0.36584(9)
C6 C 1.0022(5) 1.13275(10) 0.40593(9)
C5 C 0.8922(5) 1.19373(10) 0.38365(9)
H5 H 0.785836 1.198157 0.342186
N1 N 1.0345(4) 1.01988(8) 0.38363(8)
N3 N 1.0538(5) 0.85185(9) 0.33364(9)
C3 C 1.0953(5) 1.24145(10) 0.48247(10)
H3 H 1.123054 1.278580 0.508569
C10 C 0.8839(6) 0.85342(11) 0.27644(10)
H10 H 0.858333 0.814624 0.252730
C9 C 1.0937(5) 0.90685(10) 0.36660(10)
H9 H 1.213998 0.905405 0.407164
C11 C 0.7454(6) 0.90984(11) 0.25116(10)
H11 H 0.625093 0.909668 0.210571
C12 C 0.7819(5) 0.96675(10) 0.28500(10)
H12 H 0.682944 1.005756 0.268404
C2 C 1.2103(6) 1.18226(11) 0.50471(10)
H2 H 1.320956 1.178822 0.545950
C4 C 0.9383(5) 1.24694(10) 0.42172(10)
Br1 Br 0.78017(6) 1.32950(2) 1.39245(2)
H1 H 0.819(6) 1.0836(11) 1.3254(11)
O1 O 1.2830(4) 1.07021(7) 1.49156(7)
H1A H 1.235114 1.040632 1.465339
C1 C 1.1658(5) 1.12743(10) 1.46730(9)
C8 C 0.9665(5) 0.96595(10) 1.34392(9)
C7 C 0.9394(5) 1.07684(10) 1.36584(9)
C6 C 1.0022(5) 1.13275(10) 1.40593(9)
C5 C 0.8922(5) 1.19373(10) 1.38365(9)
H5 H 0.785836 1.198157 1.342186
N1 N 1.0345(4) 1.01988(8) 1.38363(8)
N3 N 1.0538(5) 0.85185(9) 1.33364(9)
C3 C 1.0953(5) 1.24145(10) 1.48247(10)
H3 H 1.123054 1.278580 1.508569
C10 C 0.8839(6) 0.85342(11) 1.27644(10)
H10 H 0.858333 0.814624 1.252730
C9 C 1.0937(5) 0.90685(10) 1.36660(10)
H9 H 1.213998 0.905405 1.407164
C11 C 0.7454(6) 0.90984(11) 1.25116(10)
H11 H 0.625093 0.909668 1.210571
C12 C 0.7819(5) 0.96675(10) 1.28500(10)
H12 H 0.682944 1.005756 1.268404
C2 C 1.2103(6) 1.18226(11) 1.50471(10)
H2 H 1.320956 1.178822 1.545950
C4 C 0.9383(5) 1.24694(10) 1.42172(10)
Br1 Br 0.78017(6) 0.17050(2) 0.89245(2)
H1 H 0.819(6) 0.4164(11) 0.8254(11)
O1 O 1.2830(4) 0.42979(7) 0.99156(7)
H1A H 1.235114 0.459368 0.965339
C1 C 1.1658(5) 0.37257(10) 0.96730(9)
C8 C 0.9665(5) 0.53405(10) 0.84392(9)
C7 C 0.9394(5) 0.42316(10) 0.86584(9)
C6 C 1.0022(5) 0.36725(10) 0.90593(9)
C5 C 0.8922(5) 0.30627(10) 0.88365(9)
H5 H 0.785836 0.301843 0.842186
N1 N 1.0345(4) 0.48012(8) 0.88363(8)
N3 N 1.0538(5) 0.64815(9) 0.83364(9)
C3 C 1.0953(5) 0.25855(10) 0.98247(10)
H3 H 1.123054 0.221420 1.008569
C10 C 0.8839(6) 0.64658(11) 0.77644(10)
H10 H 0.858333 0.685376 0.752730
C9 C 1.0937(5) 0.59315(10) 0.86660(10)
H9 H 1.213998 0.594595 0.907164
C11 C 0.7454(6) 0.59016(11) 0.75116(10)
H11 H 0.625093 0.590332 0.710571
C12 C 0.7819(5) 0.53325(10) 0.78500(10)
H12 H 0.682944 0.494244 0.768404
C2 C 1.2103(6) 0.31774(11) 1.00471(10)
H2 H 1.320956 0.321178 1.045950
C4 C 0.9383(5) 0.25306(10) 0.92172(10)
Br1 Br 0.78017(6) 1.17050(2) 0.89245(2)
H1 H 0.819(6) 1.4164(11) 0.8254(11)
O1 O 1.2830(4) 1.42979(7) 0.99156(7)
H1A H 1.235114 1.459368 0.965339
C1 C 1.1658(5) 1.37257(10) 0.96730(9)
C8 C 0.9665(5) 1.53405(10) 0.84392(9)
C7 C 0.9394(5) 1.42316(10) 0.86584(9)
C6 C 1.0022(5) 1.36725(10) 0.90593(9)
C5 C 0.8922(5) 1.30627(10) 0.88365(9)
H5 H 0.785836 1.301843 0.842186
N1 N 1.0345(4) 1.48012(8) 0.88363(8)
N3 N 1.0538(5) 1.64815(9) 0.83364(9)
C3 C 1.0953(5) 1.25855(10) 0.98247(10)
H3 H 1.123054 1.221420 1.008569
C10 C 0.8839(6) 1.64658(11) 0.77644(10)
H10 H 0.858333 1.685376 0.752730
C9 C 1.0937(5) 1.59315(10) 0.86660(10)
H9 H 1.213998 1.594595 0.907164
C11 C 0.7454(6) 1.59016(11) 0.75116(10)
H11 H 0.625093 1.590332 0.710571
C12 C 0.7819(5) 1.53325(10) 0.78500(10)
H12 H 0.682944 1.494244 0.768404
C2 C 1.2103(6) 1.31774(11) 1.00471(10)
H2 H 1.320956 1.321178 1.045950
C4 C 0.9383(5) 1.25306(10) 0.92172(10)
Br1 Br 0.21983(6) 0.67050(2) 0.60755(2)
H1 H 0.181(6) 0.9164(11) 0.6746(11)
O1 O -0.2830(4) 0.92979(7) 0.50844(7)
H1A H -0.235114 0.959368 0.534661
C1 C -0.1658(5) 0.87257(10) 0.53270(9)
C8 C 0.0335(5) 1.03405(10) 0.65608(9)
C7 C 0.0606(5) 0.92316(10) 0.63416(9)
C6 C -0.0022(5) 0.86725(10) 0.59407(9)
C5 C 0.1078(5) 0.80627(10) 0.61635(9)
H5 H 0.214164 0.801843 0.657814
N1 N -0.0345(4) 0.98012(8) 0.61637(8)
N3 N -0.0538(5) 1.14815(9) 0.66636(9)
C3 C -0.0953(5) 0.75855(10) 0.51753(10)
H3 H -0.123054 0.721420 0.491431
C10 C 0.1161(6) 1.14658(11) 0.72356(10)
H10 H 0.141667 1.185376 0.747270
C9 C -0.0937(5) 1.09315(10) 0.63340(10)
H9 H -0.213998 1.094595 0.592836
C11 C 0.2546(6) 1.09016(11) 0.74884(10)
H11 H 0.374907 1.090332 0.789429
C12 C 0.2181(5) 1.03325(10) 0.71500(10)
H12 H 0.317056 0.994244 0.731596
C2 C -0.2103(6) 0.81774(11) 0.49529(10)
H2 H -0.320956 0.821178 0.454050
C4 C 0.0617(5) 0.75306(10) 0.57828(10)
Br1 Br 1.21983(6) 0.67050(2) 0.60755(2)
H1 H 1.181(6) 0.9164(11) 0.6746(11)
O1 O 0.7170(4) 0.92979(7) 0.50844(7)
H1A H 0.764886 0.959368 0.534661
C1 C 0.8342(5) 0.87257(10) 0.53270(9)
C8 C 1.0335(5) 1.03405(10) 0.65608(9)
C7 C 1.0606(5) 0.92316(10) 0.63416(9)
C6 C 0.9978(5) 0.86725(10) 0.59407(9)
C5 C 1.1078(5) 0.80627(10) 0.61635(9)
H5 H 1.214164 0.801843 0.657814
N1 N 0.9655(4) 0.98012(8) 0.61637(8)
N3 N 0.9462(5) 1.14815(9) 0.66636(9)
C3 C 0.9047(5) 0.75855(10) 0.51753(10)
H3 H 0.876946 0.721420 0.491431
C10 C 1.1161(6) 1.14658(11) 0.72356(10)
H10 H 1.141667 1.185376 0.747270
C9 C 0.9063(5) 1.09315(10) 0.63340(10)
H9 H 0.786002 1.094595 0.592836
C11 C 1.2546(6) 1.09016(11) 0.74884(10)
H11 H 1.374907 1.090332 0.789429
C12 C 1.2181(5) 1.03325(10) 0.71500(10)
H12 H 1.317056 0.994244 0.731596
C2 C 0.7897(6) 0.81774(11) 0.49529(10)
H2 H 0.679044 0.821178 0.454050
C4 C 1.0617(5) 0.75306(10) 0.57828(10)
C13 C 0.5983(5) 0.20253(10) 0.16279(10)
C15 C 0.5006(5) 0.12575(10) 0.07200(9)
H15 H 0.601692 0.156565 0.045553
C14 C 0.4759(5) 0.13980(9) 0.13588(9)
C16 C 0.3805(6) 0.06783(11) 0.04678(10)
H16 H 0.395131 0.059110 0.003168
C17 C 0.2375(6) 0.02222(11) 0.08584(11)
H17 H 0.154581 -0.017738 0.068701
C18 C 0.2154(6) 0.03463(10) 0.14912(11)
H18 H 0.121928 0.002908 0.175559
C19 C 0.3299(5) 0.09366(10) 0.17444(9)
O2 O 0.5787(4) 0.21539(7) 0.21917(7)
O3 O 0.7266(4) 0.24205(7) 0.12231(7)
H3A H 0.790850 0.276342 0.140754
O4 O 0.2962(5) 0.10464(8) 0.23692(7)
H4 H 0.361317 0.142443 0.245991
C13 C 0.5983(5) 0.20253(10) 1.16279(10)
C15 C 0.5006(5) 0.12575(10) 1.07200(9)
H15 H 0.601692 0.156565 1.045553
C14 C 0.4759(5) 0.13980(9) 1.13588(9)
C16 C 0.3805(6) 0.06783(11) 1.04678(10)
H16 H 0.395131 0.059110 1.003168
C17 C 0.2375(6) 0.02222(11) 1.08584(11)
H17 H 0.154581 -0.017738 1.068701
C18 C 0.2154(6) 0.03463(10) 1.14912(11)
H18 H 0.121928 0.002908 1.175559
C19 C 0.3299(5) 0.09366(10) 1.17444(9)
O2 O 0.5787(4) 0.21539(7) 1.21917(7)
O3 O 0.7266(4) 0.24205(7) 1.12231(7)
H3A H 0.790850 0.276342 1.140754
O4 O 0.2962(5) 0.10464(8) 1.23692(7)
H4 H 0.361317 0.142443 1.245991
C13 C 0.5983(5) 1.20253(10) 0.16279(10)
C15 C 0.5006(5) 1.12575(10) 0.07200(9)
H15 H 0.601692 1.156565 0.045553
C14 C 0.4759(5) 1.13980(9) 0.13588(9)
C16 C 0.3805(6) 1.06783(11) 0.04678(10)
H16 H 0.395131 1.059110 0.003168
C17 C 0.2375(6) 1.02222(11) 0.08584(11)
H17 H 0.154581 0.982262 0.068701
C18 C 0.2154(6) 1.03463(10) 0.14912(11)
H18 H 0.121928 1.002908 0.175559
C19 C 0.3299(5) 1.09366(10) 0.17444(9)
O2 O 0.5787(4) 1.21539(7) 0.21917(7)
O3 O 0.7266(4) 1.24205(7) 0.12231(7)
H3A H 0.790850 1.276342 0.140754
O4 O 0.2962(5) 1.10464(8) 0.23692(7)
H4 H 0.361317 1.142443 0.245991
C13 C 0.5983(5) 1.20253(10) 1.16279(10)
C15 C 0.5006(5) 1.12575(10) 1.07200(9)
H15 H 0.601692 1.156565 1.045553
C14 C 0.4759(5) 1.13980(9) 1.13588(9)
C16 C 0.3805(6) 1.06783(11) 1.04678(10)
H16 H 0.395131 1.059110 1.003168
C17 C 0.2375(6) 1.02222(11) 1.08584(11)
H17 H 0.154581 0.982262 1.068701
C18 C 0.2154(6) 1.03463(10) 1.14912(11)
H18 H 0.121928 1.002908 1.175559
C19 C 0.3299(5) 1.09366(10) 1.17444(9)
O2 O 0.5787(4) 1.21539(7) 1.21917(7)
O3 O 0.7266(4) 1.24205(7) 1.12231(7)
H3A H 0.790850 1.276342 1.140754
O4 O 0.2962(5) 1.10464(8) 1.23692(7)
H4 H 0.361317 1.142443 1.245991
C13 C 1.5983(5) 0.20253(10) 0.16279(10)
C15 C 1.5006(5) 0.12575(10) 0.07200(9)
H15 H 1.601692 0.156565 0.045553
C14 C 1.4759(5) 0.13980(9) 0.13588(9)
C16 C 1.3805(6) 0.06783(11) 0.04678(10)
H16 H 1.395131 0.059110 0.003168
C17 C 1.2375(6) 0.02222(11) 0.08584(11)
H17 H 1.154581 -0.017738 0.068701
C18 C 1.2154(6) 0.03463(10) 0.14912(11)
H18 H 1.121928 0.002908 0.175559
C19 C 1.3299(5) 0.09366(10) 0.17444(9)
O2 O 1.5787(4) 0.21539(7) 0.21917(7)
O3 O 1.7266(4) 0.24205(7) 0.12231(7)
H3A H 1.790850 0.276342 0.140754
O4 O 1.2962(5) 0.10464(8) 0.23692(7)
H4 H 1.361317 0.142443 0.245991
C13 C 1.5983(5) 0.20253(10) 1.16279(10)
C15 C 1.5006(5) 0.12575(10) 1.07200(9)
H15 H 1.601692 0.156565 1.045553
C14 C 1.4759(5) 0.13980(9) 1.13588(9)
C16 C 1.3805(6) 0.06783(11) 1.04678(10)
H16 H 1.395131 0.059110 1.003168
C17 C 1.2375(6) 0.02222(11) 1.08584(11)
H17 H 1.154581 -0.017738 1.068701
C18 C 1.2154(6) 0.03463(10) 1.14912(11)
H18 H 1.121928 0.002908 1.175559
C19 C 1.3299(5) 0.09366(10) 1.17444(9)
O2 O 1.5787(4) 0.21539(7) 1.21917(7)
O3 O 1.7266(4) 0.24205(7) 1.12231(7)
H3A H 1.790850 0.276342 1.140754
O4 O 1.2962(5) 0.10464(8) 1.23692(7)
H4 H 1.361317 0.142443 1.245991
C13 C 1.5983(5) 1.20253(10) 0.16279(10)
C15 C 1.5006(5) 1.12575(10) 0.07200(9)
H15 H 1.601692 1.156565 0.045553
C14 C 1.4759(5) 1.13980(9) 0.13588(9)
C16 C 1.3805(6) 1.06783(11) 0.04678(10)
H16 H 1.395131 1.059110 0.003168
C17 C 1.2375(6) 1.02222(11) 0.08584(11)
H17 H 1.154581 0.982262 0.068701
C18 C 1.2154(6) 1.03463(10) 0.14912(11)
H18 H 1.121928 1.002908 0.175559
C19 C 1.3299(5) 1.09366(10) 0.17444(9)
O2 O 1.5787(4) 1.21539(7) 0.21917(7)
O3 O 1.7266(4) 1.24205(7) 0.12231(7)
H3A H 1.790850 1.276342 0.140754
O4 O 1.2962(5) 1.10464(8) 0.23692(7)
H4 H 1.361317 1.142443 0.245991
C13 C 1.5983(5) 1.20253(10) 1.16279(10)
C15 C 1.5006(5) 1.12575(10) 1.07200(9)
H15 H 1.601692 1.156565 1.045553
C14 C 1.4759(5) 1.13980(9) 1.13588(9)
C16 C 1.3805(6) 1.06783(11) 1.04678(10)
H16 H 1.395131 1.059110 1.003168
C17 C 1.2375(6) 1.02222(11) 1.08584(11)
H17 H 1.154581 0.982262 1.068701
C18 C 1.2154(6) 1.03463(10) 1.14912(11)
H18 H 1.121928 1.002908 1.175559
C19 C 1.3299(5) 1.09366(10) 1.17444(9)
O2 O 1.5787(4) 1.21539(7) 1.21917(7)
O3 O 1.7266(4) 1.24205(7) 1.12231(7)
H3A H 1.790850 1.276342 1.140754
O4 O 1.2962(5) 1.10464(8) 1.23692(7)
H4 H 1.361317 1.142443 1.245991
C13 C 0.4017(5) 0.70253(10) 0.33721(10)
C15 C 0.4994(5) 0.62575(10) 0.42800(9)
H15 H 0.398308 0.656565 0.454447
C14 C 0.5241(5) 0.63980(9) 0.36412(9)
C16 C 0.6195(6) 0.56783(11) 0.45322(10)
H16 H 0.604869 0.559110 0.496832
C17 C 0.7625(6) 0.52222(11) 0.41416(11)
H17 H 0.845419 0.482262 0.431299
C18 C 0.7846(6) 0.53463(10) 0.35088(11)
H18 H 0.878072 0.502908 0.324441
C19 C 0.6701(5) 0.59366(10) 0.32556(9)
O2 O 0.4213(4) 0.71539(7) 0.28083(7)
O3 O 0.2734(4) 0.74205(7) 0.37769(7)
H3A H 0.209150 0.776342 0.359246
O4 O 0.7038(5) 0.60464(8) 0.26308(7)
H4 H 0.638683 0.642443 0.254009
C13 C 0.4017(5) 0.70253(10) 1.33721(10)
C15 C 0.4994(5) 0.62575(10) 1.42800(9)
H15 H 0.398308 0.656565 1.454447
C14 C 0.5241(5) 0.63980(9) 1.36412(9)
C16 C 0.6195(6) 0.56783(11) 1.45322(10)
H16 H 0.604869 0.559110 1.496832
C17 C 0.7625(6) 0.52222(11) 1.41416(11)
H17 H 0.845419 0.482262 1.431299
C18 C 0.7846(6) 0.53463(10) 1.35088(11)
H18 H 0.878072 0.502908 1.324441
C19 C 0.6701(5) 0.59366(10) 1.32556(9)
O2 O 0.4213(4) 0.71539(7) 1.28083(7)
O3 O 0.2734(4) 0.74205(7) 1.37769(7)
H3A H 0.209150 0.776342 1.359246
O4 O 0.7038(5) 0.60464(8) 1.26308(7)
H4 H 0.638683 0.642443 1.254009
C13 C 0.4017(5) 0.79747(10) 0.83721(10)
C15 C 0.4994(5) 0.87425(10) 0.92800(9)
H15 H 0.398308 0.843435 0.954447
C14 C 0.5241(5) 0.86020(9) 0.86412(9)
C16 C 0.6195(6) 0.93217(11) 0.95322(10)
H16 H 0.604869 0.940890 0.996832
C17 C 0.7625(6) 0.97778(11) 0.91416(11)
H17 H 0.845419 1.017738 0.931299
C18 C 0.7846(6) 0.96537(10) 0.85088(11)
H18 H 0.878072 0.997092 0.824441
C19 C 0.6701(5) 0.90634(10) 0.82556(9)
O2 O 0.4213(4) 0.78461(7) 0.78083(7)
O3 O 0.2734(4) 0.75795(7) 0.87769(7)
H3A H 0.209150 0.723658 0.859246
O4 O 0.7038(5) 0.89536(8) 0.76308(7)
H4 H 0.638683 0.857557 0.754009
C13 C 0.5983(5) 0.29747(10) 0.66279(10)
C15 C 0.5006(5) 0.37425(10) 0.57200(9)
H15 H 0.601692 0.343435 0.545553
C14 C 0.4759(5) 0.36020(9) 0.63588(9)
C16 C 0.3805(6) 0.43217(11) 0.54678(10)
H16 H 0.395131 0.440890 0.503168
C17 C 0.2375(6) 0.47778(11) 0.58584(11)
H17 H 0.154581 0.517738 0.568701
C18 C 0.2154(6) 0.46537(10) 0.64912(11)
H18 H 0.121928 0.497092 0.675559
C19 C 0.3299(5) 0.40634(10) 0.67444(9)
O2 O 0.5787(4) 0.28461(7) 0.71917(7)
O3 O 0.7266(4) 0.25795(7) 0.62231(7)
H3A H 0.790850 0.223658 0.640754
O4 O 0.2962(5) 0.39536(8) 0.73692(7)
H4 H 0.361317 0.357557 0.745991
C13 C 0.5983(5) 1.29747(10) 0.66279(10)
C15 C 0.5006(5) 1.37425(10) 0.57200(9)
H15 H 0.601692 1.343435 0.545553
C14 C 0.4759(5) 1.36020(9) 0.63588(9)
C16 C 0.3805(6) 1.43217(11) 0.54678(10)
H16 H 0.395131 1.440890 0.503168
C17 C 0.2375(6) 1.47778(11) 0.58584(11)
H17 H 0.154581 1.517738 0.568701
C18 C 0.2154(6) 1.46537(10) 0.64912(11)
H18 H 0.121928 1.497092 0.675559
C19 C 0.3299(5) 1.40634(10) 0.67444(9)
O2 O 0.5787(4) 1.28461(7) 0.71917(7)
O3 O 0.7266(4) 1.25795(7) 0.62231(7)
H3A H 0.790850 1.223658 0.640754
O4 O 0.2962(5) 1.39536(8) 0.73692(7)
H4 H 0.361317 1.357557 0.745991
C13 C 1.5983(5) 0.29747(10) 0.66279(10)
C15 C 1.5006(5) 0.37425(10) 0.57200(9)
H15 H 1.601692 0.343435 0.545553
C14 C 1.4759(5) 0.36020(9) 0.63588(9)
C16 C 1.3805(6) 0.43217(11) 0.54678(10)
H16 H 1.395131 0.440890 0.503168
C17 C 1.2375(6) 0.47778(11) 0.58584(11)
H17 H 1.154581 0.517738 0.568701
C18 C 1.2154(6) 0.46537(10) 0.64912(11)
H18 H 1.121928 0.497092 0.675559
C19 C 1.3299(5) 0.40634(10) 0.67444(9)
O2 O 1.5787(4) 0.28461(7) 0.71917(7)
O3 O 1.7266(4) 0.25795(7) 0.62231(7)
H3A H 1.790850 0.223658 0.640754
O4 O 1.2962(5) 0.39536(8) 0.73692(7)
H4 H 1.361317 0.357557 0.745991
C13 C 1.5983(5) 1.29747(10) 0.66279(10)
C15 C 1.5006(5) 1.37425(10) 0.57200(9)
H15 H 1.601692 1.343435 0.545553
C14 C 1.4759(5) 1.36020(9) 0.63588(9)
C16 C 1.3805(6) 1.43217(11) 0.54678(10)
H16 H 1.395131 1.440890 0.503168
C17 C 1.2375(6) 1.47778(11) 0.58584(11)
H17 H 1.154581 1.517738 0.568701
C18 C 1.2154(6) 1.46537(10) 0.64912(11)
H18 H 1.121928 1.497092 0.675559
C19 C 1.3299(5) 1.40634(10) 0.67444(9)
O2 O 1.5787(4) 1.28461(7) 0.71917(7)
O3 O 1.7266(4) 1.25795(7) 0.62231(7)
H3A H 1.790850 1.223658 0.640754
O4 O 1.2962(5) 1.39536(8) 0.73692(7)
H4 H 1.361317 1.357557 0.745991

#END
