
#######################################################################
#
#                 Cambridge Crystallographic Data Centre
#                                CCDC 
#
#######################################################################
#
# If this CIF has been generated from an entry in the Cambridge 
# Structural Database, then it will include bibliographic, chemical, 
# crystal, experimental, refinement or atomic coordinate data resulting 
# from the CCDC's data processing and validation procedures.
#
#######################################################################

data_shelx_CCDC7
_symmetry_cell_setting           orthorhombic
_symmetry_space_group_name_H-M   'P 21 21 21'
_symmetry_Int_Tables_number      19
_space_group_name_Hall           'P 2ac 2ab'
loop_
_symmetry_equiv_pos_site_id
_symmetry_equiv_pos_as_xyz
1 x,y,z
2 1/2-x,-y,1/2+z
3 -x,1/2+y,1/2-z
4 1/2+x,1/2-y,-z
_cell_length_a                   6.0801(5)
_cell_length_b                   15.1860(13)
_cell_length_c                   16.4018(14)
_cell_angle_alpha                90
_cell_angle_beta                 90
_cell_angle_gamma                90
_cell_volume                     1514.42
loop_
_atom_site_label
_atom_site_type_symbol
_atom_site_fract_x
_atom_site_fract_y
_atom_site_fract_z
O1 O 0.7301(3) 0.40729(9) 0.54642(10)
H1 H 0.628049 0.433960 0.524994
N1 N 0.4827(3) 0.53745(11) 0.50455(11)
N2 N 0.0440(4) 0.68421(13) 0.42579(14)
C1 C 0.8475(3) 0.46302(13) 0.59272(12)
C2 C 1.0260(4) 0.43106(13) 0.63862(12)
C3 C 1.1467(4) 0.49301(17) 0.68186(14)
H3 H 1.267280 0.473917 0.711929
C4 C 1.0959(4) 0.58218(17) 0.68232(15)
H4 H 1.183416 0.621596 0.711140
C5 C 0.9170(4) 0.61157(14) 0.64025(14)
H5 H 0.879777 0.670938 0.642027
C6 C 0.7890(3) 0.55327(13) 0.59448(12)
C7 C 0.6004(4) 0.58631(14) 0.55055(13)
H7 H 0.563212 0.645428 0.555948
C8 C 0.2956(4) 0.56961(13) 0.46303(12)
C9 C 0.2245(4) 0.65658(15) 0.46375(15)
H9 H 0.307615 0.697683 0.492323
C10 C -0.0723(4) 0.62416(17) 0.38499(15)
H10 H -0.199909 0.642805 0.358940
C11 C -0.0165(4) 0.53623(15) 0.37869(13)
C12 C 0.1720(4) 0.51008(14) 0.41864(13)
H12 H 0.216718 0.451599 0.415676
C13 C 1.0868(4) 0.33281(15) 0.63941(14)
C14 C 1.2723(6) 0.3138(2) 0.70029(19)
H14A H 1.400700 0.346826 0.685344
H14B H 1.306101 0.252027 0.699548
H14C H 1.226173 0.330548 0.754065
C15 C 1.1646(4) 0.30490(16) 0.55473(15)
H15A H 1.051293 0.317046 0.515538
H15B H 1.196363 0.242975 0.554783
H15C H 1.294978 0.337125 0.540632
C16 C 0.8881(5) 0.27591(17) 0.66399(18)
H16A H 0.841181 0.291797 0.717909
H16B H 0.929246 0.214891 0.663141
H16C H 0.769809 0.285559 0.626246
C17 C -0.1571(5) 0.4730(2) 0.33131(18)
H17A H -0.141551 0.414952 0.353665
H17B H -0.111503 0.472789 0.275282
H17C H -0.308260 0.490995 0.334708
O1 O 0.7301(3) 1.40729(9) 0.54642(10)
H1 H 0.628049 1.433960 0.524994
N1 N 0.4827(3) 1.53745(11) 0.50455(11)
N2 N 0.0440(4) 1.68421(13) 0.42579(14)
C1 C 0.8475(3) 1.46302(13) 0.59272(12)
C2 C 1.0260(4) 1.43106(13) 0.63862(12)
C3 C 1.1467(4) 1.49301(17) 0.68186(14)
H3 H 1.267280 1.473917 0.711929
C4 C 1.0959(4) 1.58218(17) 0.68232(15)
H4 H 1.183416 1.621596 0.711140
C5 C 0.9170(4) 1.61157(14) 0.64025(14)
H5 H 0.879777 1.670938 0.642027
C6 C 0.7890(3) 1.55327(13) 0.59448(12)
C7 C 0.6004(4) 1.58631(14) 0.55055(13)
H7 H 0.563212 1.645428 0.555948
C8 C 0.2956(4) 1.56961(13) 0.46303(12)
C9 C 0.2245(4) 1.65658(15) 0.46375(15)
H9 H 0.307615 1.697683 0.492323
C10 C -0.0723(4) 1.62416(17) 0.38499(15)
H10 H -0.199909 1.642805 0.358940
C11 C -0.0165(4) 1.53623(15) 0.37869(13)
C12 C 0.1720(4) 1.51008(14) 0.41864(13)
H12 H 0.216718 1.451599 0.415676
C13 C 1.0868(4) 1.33281(15) 0.63941(14)
C14 C 1.2723(6) 1.3138(2) 0.70029(19)
H14A H 1.400700 1.346826 0.685344
H14B H 1.306101 1.252027 0.699548
H14C H 1.226173 1.330548 0.754065
C15 C 1.1646(4) 1.30490(16) 0.55473(15)
H15A H 1.051293 1.317046 0.515538
H15B H 1.196363 1.242975 0.554783
H15C H 1.294978 1.337125 0.540632
C16 C 0.8881(5) 1.27591(17) 0.66399(18)
H16A H 0.841181 1.291797 0.717909
H16B H 0.929246 1.214891 0.663141
H16C H 0.769809 1.285559 0.626246
C17 C -0.1571(5) 1.4730(2) 0.33131(18)
H17A H -0.141551 1.414952 0.353665
H17B H -0.111503 1.472789 0.275282
H17C H -0.308260 1.490995 0.334708
O1 O 0.7699(3) 0.59271(9) 0.04642(10)
H1 H 0.871951 0.566040 0.024994
N1 N 1.0173(3) 0.46255(11) 0.00455(11)
N2 N 1.4560(4) 0.31579(13) -0.07421(14)
C1 C 0.6525(3) 0.53698(13) 0.09272(12)
C2 C 0.4740(4) 0.56894(13) 0.13862(12)
C3 C 0.3533(4) 0.50699(17) 0.18186(14)
H3 H 0.232720 0.526083 0.211929
C4 C 0.4041(4) 0.41782(17) 0.18232(15)
H4 H 0.316584 0.378404 0.211140
C5 C 0.5830(4) 0.38843(14) 0.14025(14)
H5 H 0.620223 0.329062 0.142027
C6 C 0.7110(3) 0.44673(13) 0.09448(12)
C7 C 0.8996(4) 0.41369(14) 0.05055(13)
H7 H 0.936788 0.354572 0.055948
C8 C 1.2044(4) 0.43039(13) -0.03697(12)
C9 C 1.2755(4) 0.34342(15) -0.03625(15)
H9 H 1.192385 0.302317 -0.007677
C10 C 1.5723(4) 0.37584(17) -0.11501(15)
H10 H 1.699909 0.357195 -0.141060
C11 C 1.5165(4) 0.46377(15) -0.12131(13)
C12 C 1.3280(4) 0.48992(14) -0.08136(13)
H12 H 1.283282 0.548401 -0.084324
C13 C 0.4132(4) 0.66719(15) 0.13941(14)
C14 C 0.2277(6) 0.6862(2) 0.20029(19)
H14A H 0.099300 0.653174 0.185344
H14B H 0.193899 0.747973 0.199548
H14C H 0.273827 0.669452 0.254065
C15 C 0.3354(4) 0.69510(16) 0.05473(15)
H15A H 0.448707 0.682954 0.015538
H15B H 0.303637 0.757025 0.054783
H15C H 0.205022 0.662875 0.040632
C16 C 0.6119(5) 0.72409(17) 0.16399(18)
H16A H 0.658819 0.708203 0.217909
H16B H 0.570754 0.785109 0.163141
H16C H 0.730191 0.714441 0.126246
C17 C 1.6571(5) 0.5270(2) -0.16869(18)
H17A H 1.641551 0.585048 -0.146335
H17B H 1.611503 0.527211 -0.224718
H17C H 1.808260 0.509005 -0.165292
O1 O 0.7699(3) 0.59271(9) 1.04642(10)
H1 H 0.871951 0.566040 1.024994
N1 N 1.0173(3) 0.46255(11) 1.00455(11)
N2 N 1.4560(4) 0.31579(13) 0.92579(14)
C1 C 0.6525(3) 0.53698(13) 1.09272(12)
C2 C 0.4740(4) 0.56894(13) 1.13862(12)
C3 C 0.3533(4) 0.50699(17) 1.18186(14)
H3 H 0.232720 0.526083 1.211929
C4 C 0.4041(4) 0.41782(17) 1.18232(15)
H4 H 0.316584 0.378404 1.211140
C5 C 0.5830(4) 0.38843(14) 1.14025(14)
H5 H 0.620223 0.329062 1.142027
C6 C 0.7110(3) 0.44673(13) 1.09448(12)
C7 C 0.8996(4) 0.41369(14) 1.05055(13)
H7 H 0.936788 0.354572 1.055948
C8 C 1.2044(4) 0.43039(13) 0.96303(12)
C9 C 1.2755(4) 0.34342(15) 0.96375(15)
H9 H 1.192385 0.302317 0.992323
C10 C 1.5723(4) 0.37584(17) 0.88499(15)
H10 H 1.699909 0.357195 0.858940
C11 C 1.5165(4) 0.46377(15) 0.87869(13)
C12 C 1.3280(4) 0.48992(14) 0.91864(13)
H12 H 1.283282 0.548401 0.915676
C13 C 0.4132(4) 0.66719(15) 1.13941(14)
C14 C 0.2277(6) 0.6862(2) 1.20029(19)
H14A H 0.099300 0.653174 1.185344
H14B H 0.193899 0.747973 1.199548
H14C H 0.273827 0.669452 1.254065
C15 C 0.3354(4) 0.69510(16) 1.05473(15)
H15A H 0.448707 0.682954 1.015538
H15B H 0.303637 0.757025 1.054783
H15C H 0.205022 0.662875 1.040632
C16 C 0.6119(5) 0.72409(17) 1.16399(18)
H16A H 0.658819 0.708203 1.217909
H16B H 0.570754 0.785109 1.163141
H16C H 0.730191 0.714441 1.126246
C17 C 1.6571(5) 0.5270(2) 0.83131(18)
H17A H 1.641551 0.585048 0.853665
H17B H 1.611503 0.527211 0.775282
H17C H 1.808260 0.509005 0.834708
O1 O 0.2699(3) 0.90729(9) 0.95358(10)
H1 H 0.371951 0.933960 0.975006
N1 N 0.5173(3) 1.03745(11) 0.99545(11)
N2 N 0.9560(4) 1.18421(13) 1.07421(14)
C1 C 0.1525(3) 0.96302(13) 0.90728(12)
C2 C -0.0260(4) 0.93106(13) 0.86138(12)
C3 C -0.1467(4) 0.99301(17) 0.81814(14)
H3 H -0.267280 0.973917 0.788071
C4 C -0.0959(4) 1.08218(17) 0.81768(15)
H4 H -0.183416 1.121596 0.788860
C5 C 0.0830(4) 1.11157(14) 0.85975(14)
H5 H 0.120223 1.170938 0.857973
C6 C 0.2110(3) 1.05327(13) 0.90552(12)
C7 C 0.3996(4) 1.08631(14) 0.94945(13)
H7 H 0.436788 1.145428 0.944052
C8 C 0.7044(4) 1.06961(13) 1.03697(12)
C9 C 0.7755(4) 1.15658(15) 1.03625(15)
H9 H 0.692385 1.197683 1.007677
C10 C 1.0723(4) 1.12416(17) 1.11501(15)
H10 H 1.199909 1.142805 1.141060
C11 C 1.0165(4) 1.03623(15) 1.12131(13)
C12 C 0.8280(4) 1.01008(14) 1.08136(13)
H12 H 0.783282 0.951599 1.084324
C13 C -0.0868(4) 0.83281(15) 0.86059(14)
C14 C -0.2723(6) 0.8138(2) 0.79971(19)
H14A H -0.400700 0.846826 0.814656
H14B H -0.306101 0.752027 0.800452
H14C H -0.226173 0.830548 0.745935
C15 C -0.1646(4) 0.80490(16) 0.94527(15)
H15A H -0.051293 0.817046 0.984462
H15B H -0.196363 0.742975 0.945217
H15C H -0.294978 0.837125 0.959368
C16 C 0.1119(5) 0.77591(17) 0.83601(18)
H16A H 0.158819 0.791797 0.782091
H16B H 0.070754 0.714891 0.836859
H16C H 0.230191 0.785559 0.873754
C17 C 1.1571(5) 0.9730(2) 1.16869(18)
H17A H 1.141551 0.914952 1.146335
H17B H 1.111503 0.972789 1.224718
H17C H 1.308260 0.990995 1.165292
O1 O 1.2699(3) 0.90729(9) 0.95358(10)
H1 H 1.371951 0.933960 0.975006
N1 N 1.5173(3) 1.03745(11) 0.99545(11)
N2 N 1.9560(4) 1.18421(13) 1.07421(14)
C1 C 1.1525(3) 0.96302(13) 0.90728(12)
C2 C 0.9740(4) 0.93106(13) 0.86138(12)
C3 C 0.8533(4) 0.99301(17) 0.81814(14)
H3 H 0.732720 0.973917 0.788071
C4 C 0.9041(4) 1.08218(17) 0.81768(15)
H4 H 0.816584 1.121596 0.788860
C5 C 1.0830(4) 1.11157(14) 0.85975(14)
H5 H 1.120223 1.170938 0.857973
C6 C 1.2110(3) 1.05327(13) 0.90552(12)
C7 C 1.3996(4) 1.08631(14) 0.94945(13)
H7 H 1.436788 1.145428 0.944052
C8 C 1.7044(4) 1.06961(13) 1.03697(12)
C9 C 1.7755(4) 1.15658(15) 1.03625(15)
H9 H 1.692385 1.197683 1.007677
C10 C 2.0723(4) 1.12416(17) 1.11501(15)
H10 H 2.199909 1.142805 1.141060
C11 C 2.0165(4) 1.03623(15) 1.12131(13)
C12 C 1.8280(4) 1.01008(14) 1.08136(13)
H12 H 1.783282 0.951599 1.084324
C13 C 0.9132(4) 0.83281(15) 0.86059(14)
C14 C 0.7277(6) 0.8138(2) 0.79971(19)
H14A H 0.599300 0.846826 0.814656
H14B H 0.693899 0.752027 0.800452
H14C H 0.773827 0.830548 0.745935
C15 C 0.8354(4) 0.80490(16) 0.94527(15)
H15A H 0.948707 0.817046 0.984462
H15B H 0.803637 0.742975 0.945217
H15C H 0.705022 0.837125 0.959368
C16 C 1.1119(5) 0.77591(17) 0.83601(18)
H16A H 1.158819 0.791797 0.782091
H16B H 1.070754 0.714891 0.836859
H16C H 1.230191 0.785559 0.873754
C17 C 2.1571(5) 0.9730(2) 1.16869(18)
H17A H 2.141551 0.914952 1.146335
H17B H 2.111503 0.972789 1.224718
H17C H 2.308260 0.990995 1.165292
O1 O 0.2301(3) 0.09271(9) 0.45358(10)
H1 H 0.128049 0.066040 0.475006
N1 N -0.0173(3) -0.03745(11) 0.49545(11)
N2 N -0.4560(4) -0.18421(13) 0.57421(14)
C1 C 0.3475(3) 0.03698(13) 0.40728(12)
C2 C 0.5260(4) 0.06894(13) 0.36138(12)
C3 C 0.6467(4) 0.00699(17) 0.31814(14)
H3 H 0.767280 0.026083 0.288071
C4 C 0.5959(4) -0.08218(17) 0.31768(15)
H4 H 0.683416 -0.121596 0.288860
C5 C 0.4170(4) -0.11157(14) 0.35975(14)
H5 H 0.379777 -0.170938 0.357973
C6 C 0.2890(3) -0.05327(13) 0.40552(12)
C7 C 0.1004(4) -0.08631(14) 0.44945(13)
H7 H 0.063212 -0.145428 0.444052
C8 C -0.2044(4) -0.06961(13) 0.53697(12)
C9 C -0.2755(4) -0.15658(15) 0.53625(15)
H9 H -0.192385 -0.197683 0.507677
C10 C -0.5723(4) -0.12416(17) 0.61501(15)
H10 H -0.699909 -0.142805 0.641060
C11 C -0.5165(4) -0.03623(15) 0.62131(13)
C12 C -0.3280(4) -0.01008(14) 0.58136(13)
H12 H -0.283282 0.048401 0.584324
C13 C 0.5868(4) 0.16719(15) 0.36059(14)
C14 C 0.7723(6) 0.1862(2) 0.29971(19)
H14A H 0.900700 0.153174 0.314656
H14B H 0.806101 0.247973 0.300452
H14C H 0.726173 0.169452 0.245935
C15 C 0.6646(4) 0.19510(16) 0.44527(15)
H15A H 0.551293 0.182954 0.484462
H15B H 0.696363 0.257025 0.445217
H15C H 0.794978 0.162875 0.459368
C16 C 0.3881(5) 0.22409(17) 0.33601(18)
H16A H 0.341181 0.208203 0.282091
H16B H 0.429246 0.285109 0.336859
H16C H 0.269809 0.214441 0.373754
C17 C -0.6571(5) 0.0270(2) 0.66869(18)
H17A H -0.641551 0.085048 0.646335
H17B H -0.611503 0.027211 0.724718
H17C H -0.808260 0.009005 0.665292
O1 O 0.2301(3) 0.09271(9) 1.45358(10)
H1 H 0.128049 0.066040 1.475006
N1 N -0.0173(3) -0.03745(11) 1.49545(11)
N2 N -0.4560(4) -0.18421(13) 1.57421(14)
C1 C 0.3475(3) 0.03698(13) 1.40728(12)
C2 C 0.5260(4) 0.06894(13) 1.36138(12)
C3 C 0.6467(4) 0.00699(17) 1.31814(14)
H3 H 0.767280 0.026083 1.288071
C4 C 0.5959(4) -0.08218(17) 1.31768(15)
H4 H 0.683416 -0.121596 1.288860
C5 C 0.4170(4) -0.11157(14) 1.35975(14)
H5 H 0.379777 -0.170938 1.357973
C6 C 0.2890(3) -0.05327(13) 1.40552(12)
C7 C 0.1004(4) -0.08631(14) 1.44945(13)
H7 H 0.063212 -0.145428 1.444052
C8 C -0.2044(4) -0.06961(13) 1.53697(12)
C9 C -0.2755(4) -0.15658(15) 1.53625(15)
H9 H -0.192385 -0.197683 1.507677
C10 C -0.5723(4) -0.12416(17) 1.61501(15)
H10 H -0.699909 -0.142805 1.641060
C11 C -0.5165(4) -0.03623(15) 1.62131(13)
C12 C -0.3280(4) -0.01008(14) 1.58136(13)
H12 H -0.283282 0.048401 1.584324
C13 C 0.5868(4) 0.16719(15) 1.36059(14)
C14 C 0.7723(6) 0.1862(2) 1.29971(19)
H14A H 0.900700 0.153174 1.314656
H14B H 0.806101 0.247973 1.300452
H14C H 0.726173 0.169452 1.245935
C15 C 0.6646(4) 0.19510(16) 1.44527(15)
H15A H 0.551293 0.182954 1.484462
H15B H 0.696363 0.257025 1.445217
H15C H 0.794978 0.162875 1.459368
C16 C 0.3881(5) 0.22409(17) 1.33601(18)
H16A H 0.341181 0.208203 1.282091
H16B H 0.429246 0.285109 1.336859
H16C H 0.269809 0.214441 1.373754
C17 C -0.6571(5) 0.0270(2) 1.66869(18)
H17A H -0.641551 0.085048 1.646335
H17B H -0.611503 0.027211 1.724718
H17C H -0.808260 0.009005 1.665292
O1 O 0.2301(3) 1.09271(9) 0.45358(10)
H1 H 0.128049 1.066040 0.475006
N1 N -0.0173(3) 0.96255(11) 0.49545(11)
N2 N -0.4560(4) 0.81579(13) 0.57421(14)
C1 C 0.3475(3) 1.03698(13) 0.40728(12)
C2 C 0.5260(4) 1.06894(13) 0.36138(12)
C3 C 0.6467(4) 1.00699(17) 0.31814(14)
H3 H 0.767280 1.026083 0.288071
C4 C 0.5959(4) 0.91782(17) 0.31768(15)
H4 H 0.683416 0.878404 0.288860
C5 C 0.4170(4) 0.88843(14) 0.35975(14)
H5 H 0.379777 0.829062 0.357973
C6 C 0.2890(3) 0.94673(13) 0.40552(12)
C7 C 0.1004(4) 0.91369(14) 0.44945(13)
H7 H 0.063212 0.854572 0.444052
C8 C -0.2044(4) 0.93039(13) 0.53697(12)
C9 C -0.2755(4) 0.84342(15) 0.53625(15)
H9 H -0.192385 0.802317 0.507677
C10 C -0.5723(4) 0.87584(17) 0.61501(15)
H10 H -0.699909 0.857195 0.641060
C11 C -0.5165(4) 0.96377(15) 0.62131(13)
C12 C -0.3280(4) 0.98992(14) 0.58136(13)
H12 H -0.283282 1.048401 0.584324
C13 C 0.5868(4) 1.16719(15) 0.36059(14)
C14 C 0.7723(6) 1.1862(2) 0.29971(19)
H14A H 0.900700 1.153174 0.314656
H14B H 0.806101 1.247973 0.300452
H14C H 0.726173 1.169452 0.245935
C15 C 0.6646(4) 1.19510(16) 0.44527(15)
H15A H 0.551293 1.182954 0.484462
H15B H 0.696363 1.257025 0.445217
H15C H 0.794978 1.162875 0.459368
C16 C 0.3881(5) 1.22409(17) 0.33601(18)
H16A H 0.341181 1.208203 0.282091
H16B H 0.429246 1.285109 0.336859
H16C H 0.269809 1.214441 0.373754
C17 C -0.6571(5) 1.0270(2) 0.66869(18)
H17A H -0.641551 1.085048 0.646335
H17B H -0.611503 1.027211 0.724718
H17C H -0.808260 1.009005 0.665292
O1 O 0.2301(3) 1.09271(9) 1.45358(10)
H1 H 0.128049 1.066040 1.475006
N1 N -0.0173(3) 0.96255(11) 1.49545(11)
N2 N -0.4560(4) 0.81579(13) 1.57421(14)
C1 C 0.3475(3) 1.03698(13) 1.40728(12)
C2 C 0.5260(4) 1.06894(13) 1.36138(12)
C3 C 0.6467(4) 1.00699(17) 1.31814(14)
H3 H 0.767280 1.026083 1.288071
C4 C 0.5959(4) 0.91782(17) 1.31768(15)
H4 H 0.683416 0.878404 1.288860
C5 C 0.4170(4) 0.88843(14) 1.35975(14)
H5 H 0.379777 0.829062 1.357973
C6 C 0.2890(3) 0.94673(13) 1.40552(12)
C7 C 0.1004(4) 0.91369(14) 1.44945(13)
H7 H 0.063212 0.854572 1.444052
C8 C -0.2044(4) 0.93039(13) 1.53697(12)
C9 C -0.2755(4) 0.84342(15) 1.53625(15)
H9 H -0.192385 0.802317 1.507677
C10 C -0.5723(4) 0.87584(17) 1.61501(15)
H10 H -0.699909 0.857195 1.641060
C11 C -0.5165(4) 0.96377(15) 1.62131(13)
C12 C -0.3280(4) 0.98992(14) 1.58136(13)
H12 H -0.283282 1.048401 1.584324
C13 C 0.5868(4) 1.16719(15) 1.36059(14)
C14 C 0.7723(6) 1.1862(2) 1.29971(19)
H14A H 0.900700 1.153174 1.314656
H14B H 0.806101 1.247973 1.300452
H14C H 0.726173 1.169452 1.245935
C15 C 0.6646(4) 1.19510(16) 1.44527(15)
H15A H 0.551293 1.182954 1.484462
H15B H 0.696363 1.257025 1.445217
H15C H 0.794978 1.162875 1.459368
C16 C 0.3881(5) 1.22409(17) 1.33601(18)
H16A H 0.341181 1.208203 1.282091
H16B H 0.429246 1.285109 1.336859
H16C H 0.269809 1.214441 1.373754
C17 C -0.6571(5) 1.0270(2) 1.66869(18)
H17A H -0.641551 1.085048 1.646335
H17B H -0.611503 1.027211 1.724718
H17C H -0.808260 1.009005 1.665292
O1 O 1.2301(3) 0.09271(9) 0.45358(10)
H1 H 1.128049 0.066040 0.475006
N1 N 0.9827(3) -0.03745(11) 0.49545(11)
N2 N 0.5440(4) -0.18421(13) 0.57421(14)
C1 C 1.3475(3) 0.03698(13) 0.40728(12)
C2 C 1.5260(4) 0.06894(13) 0.36138(12)
C3 C 1.6467(4) 0.00699(17) 0.31814(14)
H3 H 1.767280 0.026083 0.288071
C4 C 1.5959(4) -0.08218(17) 0.31768(15)
H4 H 1.683416 -0.121596 0.288860
C5 C 1.4170(4) -0.11157(14) 0.35975(14)
H5 H 1.379777 -0.170938 0.357973
C6 C 1.2890(3) -0.05327(13) 0.40552(12)
C7 C 1.1004(4) -0.08631(14) 0.44945(13)
H7 H 1.063212 -0.145428 0.444052
C8 C 0.7956(4) -0.06961(13) 0.53697(12)
C9 C 0.7245(4) -0.15658(15) 0.53625(15)
H9 H 0.807615 -0.197683 0.507677
C10 C 0.4277(4) -0.12416(17) 0.61501(15)
H10 H 0.300091 -0.142805 0.641060
C11 C 0.4835(4) -0.03623(15) 0.62131(13)
C12 C 0.6720(4) -0.01008(14) 0.58136(13)
H12 H 0.716718 0.048401 0.584324
C13 C 1.5868(4) 0.16719(15) 0.36059(14)
C14 C 1.7723(6) 0.1862(2) 0.29971(19)
H14A H 1.900700 0.153174 0.314656
H14B H 1.806101 0.247973 0.300452
H14C H 1.726173 0.169452 0.245935
C15 C 1.6646(4) 0.19510(16) 0.44527(15)
H15A H 1.551293 0.182954 0.484462
H15B H 1.696363 0.257025 0.445217
H15C H 1.794978 0.162875 0.459368
C16 C 1.3881(5) 0.22409(17) 0.33601(18)
H16A H 1.341181 0.208203 0.282091
H16B H 1.429246 0.285109 0.336859
H16C H 1.269809 0.214441 0.373754
C17 C 0.3429(5) 0.0270(2) 0.66869(18)
H17A H 0.358449 0.085048 0.646335
H17B H 0.388497 0.027211 0.724718
H17C H 0.191740 0.009005 0.665292
O1 O 1.2301(3) 0.09271(9) 1.45358(10)
H1 H 1.128049 0.066040 1.475006
N1 N 0.9827(3) -0.03745(11) 1.49545(11)
N2 N 0.5440(4) -0.18421(13) 1.57421(14)
C1 C 1.3475(3) 0.03698(13) 1.40728(12)
C2 C 1.5260(4) 0.06894(13) 1.36138(12)
C3 C 1.6467(4) 0.00699(17) 1.31814(14)
H3 H 1.767280 0.026083 1.288071
C4 C 1.5959(4) -0.08218(17) 1.31768(15)
H4 H 1.683416 -0.121596 1.288860
C5 C 1.4170(4) -0.11157(14) 1.35975(14)
H5 H 1.379777 -0.170938 1.357973
C6 C 1.2890(3) -0.05327(13) 1.40552(12)
C7 C 1.1004(4) -0.08631(14) 1.44945(13)
H7 H 1.063212 -0.145428 1.444052
C8 C 0.7956(4) -0.06961(13) 1.53697(12)
C9 C 0.7245(4) -0.15658(15) 1.53625(15)
H9 H 0.807615 -0.197683 1.507677
C10 C 0.4277(4) -0.12416(17) 1.61501(15)
H10 H 0.300091 -0.142805 1.641060
C11 C 0.4835(4) -0.03623(15) 1.62131(13)
C12 C 0.6720(4) -0.01008(14) 1.58136(13)
H12 H 0.716718 0.048401 1.584324
C13 C 1.5868(4) 0.16719(15) 1.36059(14)
C14 C 1.7723(6) 0.1862(2) 1.29971(19)
H14A H 1.900700 0.153174 1.314656
H14B H 1.806101 0.247973 1.300452
H14C H 1.726173 0.169452 1.245935
C15 C 1.6646(4) 0.19510(16) 1.44527(15)
H15A H 1.551293 0.182954 1.484462
H15B H 1.696363 0.257025 1.445217
H15C H 1.794978 0.162875 1.459368
C16 C 1.3881(5) 0.22409(17) 1.33601(18)
H16A H 1.341181 0.208203 1.282091
H16B H 1.429246 0.285109 1.336859
H16C H 1.269809 0.214441 1.373754
C17 C 0.3429(5) 0.0270(2) 1.66869(18)
H17A H 0.358449 0.085048 1.646335
H17B H 0.388497 0.027211 1.724718
H17C H 0.191740 0.009005 1.665292
O1 O 1.2301(3) 1.09271(9) 0.45358(10)
H1 H 1.128049 1.066040 0.475006
N1 N 0.9827(3) 0.96255(11) 0.49545(11)
N2 N 0.5440(4) 0.81579(13) 0.57421(14)
C1 C 1.3475(3) 1.03698(13) 0.40728(12)
C2 C 1.5260(4) 1.06894(13) 0.36138(12)
C3 C 1.6467(4) 1.00699(17) 0.31814(14)
H3 H 1.767280 1.026083 0.288071
C4 C 1.5959(4) 0.91782(17) 0.31768(15)
H4 H 1.683416 0.878404 0.288860
C5 C 1.4170(4) 0.88843(14) 0.35975(14)
H5 H 1.379777 0.829062 0.357973
C6 C 1.2890(3) 0.94673(13) 0.40552(12)
C7 C 1.1004(4) 0.91369(14) 0.44945(13)
H7 H 1.063212 0.854572 0.444052
C8 C 0.7956(4) 0.93039(13) 0.53697(12)
C9 C 0.7245(4) 0.84342(15) 0.53625(15)
H9 H 0.807615 0.802317 0.507677
C10 C 0.4277(4) 0.87584(17) 0.61501(15)
H10 H 0.300091 0.857195 0.641060
C11 C 0.4835(4) 0.96377(15) 0.62131(13)
C12 C 0.6720(4) 0.98992(14) 0.58136(13)
H12 H 0.716718 1.048401 0.584324
C13 C 1.5868(4) 1.16719(15) 0.36059(14)
C14 C 1.7723(6) 1.1862(2) 0.29971(19)
H14A H 1.900700 1.153174 0.314656
H14B H 1.806101 1.247973 0.300452
H14C H 1.726173 1.169452 0.245935
C15 C 1.6646(4) 1.19510(16) 0.44527(15)
H15A H 1.551293 1.182954 0.484462
H15B H 1.696363 1.257025 0.445217
H15C H 1.794978 1.162875 0.459368
C16 C 1.3881(5) 1.22409(17) 0.33601(18)
H16A H 1.341181 1.208203 0.282091
H16B H 1.429246 1.285109 0.336859
H16C H 1.269809 1.214441 0.373754
C17 C 0.3429(5) 1.0270(2) 0.66869(18)
H17A H 0.358449 1.085048 0.646335
H17B H 0.388497 1.027211 0.724718
H17C H 0.191740 1.009005 0.665292
O1 O 1.2301(3) 1.09271(9) 1.45358(10)
H1 H 1.128049 1.066040 1.475006
N1 N 0.9827(3) 0.96255(11) 1.49545(11)
N2 N 0.5440(4) 0.81579(13) 1.57421(14)
C1 C 1.3475(3) 1.03698(13) 1.40728(12)
C2 C 1.5260(4) 1.06894(13) 1.36138(12)
C3 C 1.6467(4) 1.00699(17) 1.31814(14)
H3 H 1.767280 1.026083 1.288071
C4 C 1.5959(4) 0.91782(17) 1.31768(15)
H4 H 1.683416 0.878404 1.288860
C5 C 1.4170(4) 0.88843(14) 1.35975(14)
H5 H 1.379777 0.829062 1.357973
C6 C 1.2890(3) 0.94673(13) 1.40552(12)
C7 C 1.1004(4) 0.91369(14) 1.44945(13)
H7 H 1.063212 0.854572 1.444052
C8 C 0.7956(4) 0.93039(13) 1.53697(12)
C9 C 0.7245(4) 0.84342(15) 1.53625(15)
H9 H 0.807615 0.802317 1.507677
C10 C 0.4277(4) 0.87584(17) 1.61501(15)
H10 H 0.300091 0.857195 1.641060
C11 C 0.4835(4) 0.96377(15) 1.62131(13)
C12 C 0.6720(4) 0.98992(14) 1.58136(13)
H12 H 0.716718 1.048401 1.584324
C13 C 1.5868(4) 1.16719(15) 1.36059(14)
C14 C 1.7723(6) 1.1862(2) 1.29971(19)
H14A H 1.900700 1.153174 1.314656
H14B H 1.806101 1.247973 1.300452
H14C H 1.726173 1.169452 1.245935
C15 C 1.6646(4) 1.19510(16) 1.44527(15)
H15A H 1.551293 1.182954 1.484462
H15B H 1.696363 1.257025 1.445217
H15C H 1.794978 1.162875 1.459368
C16 C 1.3881(5) 1.22409(17) 1.33601(18)
H16A H 1.341181 1.208203 1.282091
H16B H 1.429246 1.285109 1.336859
H16C H 1.269809 1.214441 1.373754
C17 C 0.3429(5) 1.0270(2) 1.66869(18)
H17A H 0.358449 1.085048 1.646335
H17B H 0.388497 1.027211 1.724718
H17C H 0.191740 1.009005 1.665292

#END
