
#######################################################################
#
#                 Cambridge Crystallographic Data Centre
#                                CCDC 
#
#######################################################################
#
# If this CIF has been generated from an entry in the Cambridge 
# Structural Database, then it will include bibliographic, chemical, 
# crystal, experimental, refinement or atomic coordinate data resulting 
# from the CCDC's data processing and validation procedures.
#
#######################################################################

data_shelx_CCDC2
_symmetry_cell_setting           triclinic
_symmetry_space_group_name_H-M   'P -1'
_symmetry_Int_Tables_number      2
_space_group_name_Hall           '-P 1'
loop_
_symmetry_equiv_pos_site_id
_symmetry_equiv_pos_as_xyz
1 x,y,z
2 -x,-y,-z
_cell_length_a                   8.5222(14)
_cell_length_b                   10.8771(15)
_cell_length_c                   11.5925(19)
_cell_angle_alpha                106.506(6)
_cell_angle_beta                 103.783(4)
_cell_angle_gamma                112.254(10)
_cell_volume                     878.159
loop_
_atom_site_label
_atom_site_type_symbol
_atom_site_fract_x
_atom_site_fract_y
_atom_site_fract_z
Br1 Br 0.02659(9) 0.11731(8) -0.21639(5)
O1 O 0.3298(5) 0.3252(4) 0.3683(3)
H1 H 0.291081 0.385053 0.393985
N1 N 0.2082(6) 0.5103(5) 0.3809(4)
N2 N 0.2212(6) 0.7461(5) 0.6780(4)
C1 C 0.2618(7) 0.2805(6) 0.2362(5)
C2 C 0.2860(7) 0.1720(6) 0.1597(5)
H2 H 0.347892 0.130658 0.198627
C3 C 0.2192(7) 0.1243(6) 0.0257(5)
H3 H 0.234898 0.050563 -0.025805
C4 C 0.1283(7) 0.1872(6) -0.0314(5)
C5 C 0.1061(7) 0.2957(6) 0.0428(5)
H5 H 0.046269 0.337399 0.002669
C6 C 0.1724(7) 0.3460(6) 0.1795(5)
C7 C 0.1479(7) 0.4612(6) 0.2566(5)
H7 H 0.086465 0.500938 0.214909
C8 C 0.1806(7) 0.6181(6) 0.4600(5)
C9 C 0.2421(7) 0.6506(6) 0.5910(5)
H9 H 0.301904 0.602848 0.620578
C10 C 0.1401(8) 0.8173(7) 0.6362(5)
H10 H 0.126284 0.885572 0.696494
C11 C 0.0764(9) 0.7937(7) 0.5079(6)
H11 H 0.020193 0.845116 0.481649
C12 C 0.0964(8) 0.6935(7) 0.4186(6)
H12 H 0.053963 0.676194 0.330877
Br1 Br 0.02659(9) 0.11731(8) 0.78361(5)
O1 O 0.3298(5) 0.3252(4) 1.3683(3)
H1 H 0.291081 0.385053 1.393985
N1 N 0.2082(6) 0.5103(5) 1.3809(4)
N2 N 0.2212(6) 0.7461(5) 1.6780(4)
C1 C 0.2618(7) 0.2805(6) 1.2362(5)
C2 C 0.2860(7) 0.1720(6) 1.1597(5)
H2 H 0.347892 0.130658 1.198627
C3 C 0.2192(7) 0.1243(6) 1.0257(5)
H3 H 0.234898 0.050563 0.974195
C4 C 0.1283(7) 0.1872(6) 0.9686(5)
C5 C 0.1061(7) 0.2957(6) 1.0428(5)
H5 H 0.046269 0.337399 1.002669
C6 C 0.1724(7) 0.3460(6) 1.1795(5)
C7 C 0.1479(7) 0.4612(6) 1.2566(5)
H7 H 0.086465 0.500938 1.214909
C8 C 0.1806(7) 0.6181(6) 1.4600(5)
C9 C 0.2421(7) 0.6506(6) 1.5910(5)
H9 H 0.301904 0.602848 1.620578
C10 C 0.1401(8) 0.8173(7) 1.6362(5)
H10 H 0.126284 0.885572 1.696494
C11 C 0.0764(9) 0.7937(7) 1.5079(6)
H11 H 0.020193 0.845116 1.481649
C12 C 0.0964(8) 0.6935(7) 1.4186(6)
H12 H 0.053963 0.676194 1.330877
Br1 Br 0.02659(9) 1.11731(8) -0.21639(5)
O1 O 0.3298(5) 1.3252(4) 0.3683(3)
H1 H 0.291081 1.385053 0.393985
N1 N 0.2082(6) 1.5103(5) 0.3809(4)
N2 N 0.2212(6) 1.7461(5) 0.6780(4)
C1 C 0.2618(7) 1.2805(6) 0.2362(5)
C2 C 0.2860(7) 1.1720(6) 0.1597(5)
H2 H 0.347892 1.130658 0.198627
C3 C 0.2192(7) 1.1243(6) 0.0257(5)
H3 H 0.234898 1.050563 -0.025805
C4 C 0.1283(7) 1.1872(6) -0.0314(5)
C5 C 0.1061(7) 1.2957(6) 0.0428(5)
H5 H 0.046269 1.337399 0.002669
C6 C 0.1724(7) 1.3460(6) 0.1795(5)
C7 C 0.1479(7) 1.4612(6) 0.2566(5)
H7 H 0.086465 1.500938 0.214909
C8 C 0.1806(7) 1.6181(6) 0.4600(5)
C9 C 0.2421(7) 1.6506(6) 0.5910(5)
H9 H 0.301904 1.602848 0.620578
C10 C 0.1401(8) 1.8173(7) 0.6362(5)
H10 H 0.126284 1.885572 0.696494
C11 C 0.0764(9) 1.7937(7) 0.5079(6)
H11 H 0.020193 1.845116 0.481649
C12 C 0.0964(8) 1.6935(7) 0.4186(6)
H12 H 0.053963 1.676194 0.330877
Br1 Br 0.02659(9) 1.11731(8) 0.78361(5)
O1 O 0.3298(5) 1.3252(4) 1.3683(3)
H1 H 0.291081 1.385053 1.393985
N1 N 0.2082(6) 1.5103(5) 1.3809(4)
N2 N 0.2212(6) 1.7461(5) 1.6780(4)
C1 C 0.2618(7) 1.2805(6) 1.2362(5)
C2 C 0.2860(7) 1.1720(6) 1.1597(5)
H2 H 0.347892 1.130658 1.198627
C3 C 0.2192(7) 1.1243(6) 1.0257(5)
H3 H 0.234898 1.050563 0.974195
C4 C 0.1283(7) 1.1872(6) 0.9686(5)
C5 C 0.1061(7) 1.2957(6) 1.0428(5)
H5 H 0.046269 1.337399 1.002669
C6 C 0.1724(7) 1.3460(6) 1.1795(5)
C7 C 0.1479(7) 1.4612(6) 1.2566(5)
H7 H 0.086465 1.500938 1.214909
C8 C 0.1806(7) 1.6181(6) 1.4600(5)
C9 C 0.2421(7) 1.6506(6) 1.5910(5)
H9 H 0.301904 1.602848 1.620578
C10 C 0.1401(8) 1.8173(7) 1.6362(5)
H10 H 0.126284 1.885572 1.696494
C11 C 0.0764(9) 1.7937(7) 1.5079(6)
H11 H 0.020193 1.845116 1.481649
C12 C 0.0964(8) 1.6935(7) 1.4186(6)
H12 H 0.053963 1.676194 1.330877
Br1 Br 1.02659(9) 0.11731(8) -0.21639(5)
O1 O 1.3298(5) 0.3252(4) 0.3683(3)
H1 H 1.291081 0.385053 0.393985
N1 N 1.2082(6) 0.5103(5) 0.3809(4)
N2 N 1.2212(6) 0.7461(5) 0.6780(4)
C1 C 1.2618(7) 0.2805(6) 0.2362(5)
C2 C 1.2860(7) 0.1720(6) 0.1597(5)
H2 H 1.347892 0.130658 0.198627
C3 C 1.2192(7) 0.1243(6) 0.0257(5)
H3 H 1.234898 0.050563 -0.025805
C4 C 1.1283(7) 0.1872(6) -0.0314(5)
C5 C 1.1061(7) 0.2957(6) 0.0428(5)
H5 H 1.046269 0.337399 0.002669
C6 C 1.1724(7) 0.3460(6) 0.1795(5)
C7 C 1.1479(7) 0.4612(6) 0.2566(5)
H7 H 1.086465 0.500938 0.214909
C8 C 1.1806(7) 0.6181(6) 0.4600(5)
C9 C 1.2421(7) 0.6506(6) 0.5910(5)
H9 H 1.301904 0.602848 0.620578
C10 C 1.1401(8) 0.8173(7) 0.6362(5)
H10 H 1.126284 0.885572 0.696494
C11 C 1.0764(9) 0.7937(7) 0.5079(6)
H11 H 1.020193 0.845116 0.481649
C12 C 1.0964(8) 0.6935(7) 0.4186(6)
H12 H 1.053963 0.676194 0.330877
Br1 Br 1.02659(9) 0.11731(8) 0.78361(5)
O1 O 1.3298(5) 0.3252(4) 1.3683(3)
H1 H 1.291081 0.385053 1.393985
N1 N 1.2082(6) 0.5103(5) 1.3809(4)
N2 N 1.2212(6) 0.7461(5) 1.6780(4)
C1 C 1.2618(7) 0.2805(6) 1.2362(5)
C2 C 1.2860(7) 0.1720(6) 1.1597(5)
H2 H 1.347892 0.130658 1.198627
C3 C 1.2192(7) 0.1243(6) 1.0257(5)
H3 H 1.234898 0.050563 0.974195
C4 C 1.1283(7) 0.1872(6) 0.9686(5)
C5 C 1.1061(7) 0.2957(6) 1.0428(5)
H5 H 1.046269 0.337399 1.002669
C6 C 1.1724(7) 0.3460(6) 1.1795(5)
C7 C 1.1479(7) 0.4612(6) 1.2566(5)
H7 H 1.086465 0.500938 1.214909
C8 C 1.1806(7) 0.6181(6) 1.4600(5)
C9 C 1.2421(7) 0.6506(6) 1.5910(5)
H9 H 1.301904 0.602848 1.620578
C10 C 1.1401(8) 0.8173(7) 1.6362(5)
H10 H 1.126284 0.885572 1.696494
C11 C 1.0764(9) 0.7937(7) 1.5079(6)
H11 H 1.020193 0.845116 1.481649
C12 C 1.0964(8) 0.6935(7) 1.4186(6)
H12 H 1.053963 0.676194 1.330877
Br1 Br 1.02659(9) 1.11731(8) -0.21639(5)
O1 O 1.3298(5) 1.3252(4) 0.3683(3)
H1 H 1.291081 1.385053 0.393985
N1 N 1.2082(6) 1.5103(5) 0.3809(4)
N2 N 1.2212(6) 1.7461(5) 0.6780(4)
C1 C 1.2618(7) 1.2805(6) 0.2362(5)
C2 C 1.2860(7) 1.1720(6) 0.1597(5)
H2 H 1.347892 1.130658 0.198627
C3 C 1.2192(7) 1.1243(6) 0.0257(5)
H3 H 1.234898 1.050563 -0.025805
C4 C 1.1283(7) 1.1872(6) -0.0314(5)
C5 C 1.1061(7) 1.2957(6) 0.0428(5)
H5 H 1.046269 1.337399 0.002669
C6 C 1.1724(7) 1.3460(6) 0.1795(5)
C7 C 1.1479(7) 1.4612(6) 0.2566(5)
H7 H 1.086465 1.500938 0.214909
C8 C 1.1806(7) 1.6181(6) 0.4600(5)
C9 C 1.2421(7) 1.6506(6) 0.5910(5)
H9 H 1.301904 1.602848 0.620578
C10 C 1.1401(8) 1.8173(7) 0.6362(5)
H10 H 1.126284 1.885572 0.696494
C11 C 1.0764(9) 1.7937(7) 0.5079(6)
H11 H 1.020193 1.845116 0.481649
C12 C 1.0964(8) 1.6935(7) 0.4186(6)
H12 H 1.053963 1.676194 0.330877
Br1 Br 1.02659(9) 1.11731(8) 0.78361(5)
O1 O 1.3298(5) 1.3252(4) 1.3683(3)
H1 H 1.291081 1.385053 1.393985
N1 N 1.2082(6) 1.5103(5) 1.3809(4)
N2 N 1.2212(6) 1.7461(5) 1.6780(4)
C1 C 1.2618(7) 1.2805(6) 1.2362(5)
C2 C 1.2860(7) 1.1720(6) 1.1597(5)
H2 H 1.347892 1.130658 1.198627
C3 C 1.2192(7) 1.1243(6) 1.0257(5)
H3 H 1.234898 1.050563 0.974195
C4 C 1.1283(7) 1.1872(6) 0.9686(5)
C5 C 1.1061(7) 1.2957(6) 1.0428(5)
H5 H 1.046269 1.337399 1.002669
C6 C 1.1724(7) 1.3460(6) 1.1795(5)
C7 C 1.1479(7) 1.4612(6) 1.2566(5)
H7 H 1.086465 1.500938 1.214909
C8 C 1.1806(7) 1.6181(6) 1.4600(5)
C9 C 1.2421(7) 1.6506(6) 1.5910(5)
H9 H 1.301904 1.602848 1.620578
C10 C 1.1401(8) 1.8173(7) 1.6362(5)
H10 H 1.126284 1.885572 1.696494
C11 C 1.0764(9) 1.7937(7) 1.5079(6)
H11 H 1.020193 1.845116 1.481649
C12 C 1.0964(8) 1.6935(7) 1.4186(6)
H12 H 1.053963 1.676194 1.330877
Br1 Br 0.97341(9) 0.88269(8) 1.21639(5)
O1 O 0.6702(5) 0.6748(4) 0.6317(3)
H1 H 0.708919 0.614947 0.606015
N1 N 0.7918(6) 0.4897(5) 0.6191(4)
N2 N 0.7788(6) 0.2539(5) 0.3220(4)
C1 C 0.7382(7) 0.7195(6) 0.7638(5)
C2 C 0.7140(7) 0.8280(6) 0.8403(5)
H2 H 0.652108 0.869342 0.801373
C3 C 0.7808(7) 0.8757(6) 0.9743(5)
H3 H 0.765102 0.949437 1.025805
C4 C 0.8717(7) 0.8128(6) 1.0314(5)
C5 C 0.8939(7) 0.7043(6) 0.9572(5)
H5 H 0.953731 0.662601 0.997331
C6 C 0.8276(7) 0.6540(6) 0.8205(5)
C7 C 0.8521(7) 0.5388(6) 0.7434(5)
H7 H 0.913535 0.499062 0.785091
C8 C 0.8194(7) 0.3819(6) 0.5400(5)
C9 C 0.7579(7) 0.3494(6) 0.4090(5)
H9 H 0.698096 0.397152 0.379422
C10 C 0.8599(8) 0.1827(7) 0.3638(5)
H10 H 0.873716 0.114428 0.303506
C11 C 0.9236(9) 0.2063(7) 0.4921(6)
H11 H 0.979807 0.154884 0.518351
C12 C 0.9036(8) 0.3065(7) 0.5814(6)
H12 H 0.946037 0.323806 0.669123
O2 O 0.6221(5) 0.6089(4) 0.3236(3)
H14 H 0.617779 0.542677 0.264960
O3 O 0.6077(5) 0.8369(4) 0.4906(3)
H15 H 0.648026 0.783716 0.507221
O4 O 0.3142(5) 0.7901(4) -0.0774(3)
H4 H 0.279131 0.765755 -0.156549
O5 O 0.3275(5) 0.5813(5) -0.1302(3)
C13 C 0.4794(7) 0.6478(6) 0.1404(5)
H13 H 0.478938 0.568838 0.081719
C14 C 0.5479(7) 0.6818(6) 0.2709(5)
C15 C 0.5418(7) 0.7962(6) 0.3591(5)
C16 C 0.4686(8) 0.8749(6) 0.3128(5)
H16 H 0.462211 0.950286 0.370679
C17 C 0.4050(8) 0.8418(6) 0.1809(5)
H17 H 0.358008 0.896265 0.150798
C18 C 0.4105(7) 0.7287(6) 0.0934(5)
C19 C 0.3459(7) 0.6912(7) -0.0498(5)
O2 O 0.6221(5) 0.6089(4) 1.3236(3)
H14 H 0.617779 0.542677 1.264960
O3 O 0.6077(5) 0.8369(4) 1.4906(3)
H15 H 0.648026 0.783716 1.507221
O4 O 0.3142(5) 0.7901(4) 0.9226(3)
H4 H 0.279131 0.765755 0.843451
O5 O 0.3275(5) 0.5813(5) 0.8698(3)
C13 C 0.4794(7) 0.6478(6) 1.1404(5)
H13 H 0.478938 0.568838 1.081719
C14 C 0.5479(7) 0.6818(6) 1.2709(5)
C15 C 0.5418(7) 0.7962(6) 1.3591(5)
C16 C 0.4686(8) 0.8749(6) 1.3128(5)
H16 H 0.462211 0.950286 1.370679
C17 C 0.4050(8) 0.8418(6) 1.1809(5)
H17 H 0.358008 0.896265 1.150798
C18 C 0.4105(7) 0.7287(6) 1.0934(5)
C19 C 0.3459(7) 0.6912(7) 0.9502(5)
O2 O 1.6221(5) 0.6089(4) 0.3236(3)
H14 H 1.617779 0.542677 0.264960
O3 O 1.6077(5) 0.8369(4) 0.4906(3)
H15 H 1.648026 0.783716 0.507221
O4 O 1.3142(5) 0.7901(4) -0.0774(3)
H4 H 1.279131 0.765755 -0.156549
O5 O 1.3275(5) 0.5813(5) -0.1302(3)
C13 C 1.4794(7) 0.6478(6) 0.1404(5)
H13 H 1.478938 0.568838 0.081719
C14 C 1.5479(7) 0.6818(6) 0.2709(5)
C15 C 1.5418(7) 0.7962(6) 0.3591(5)
C16 C 1.4686(8) 0.8749(6) 0.3128(5)
H16 H 1.462211 0.950286 0.370679
C17 C 1.4050(8) 0.8418(6) 0.1809(5)
H17 H 1.358008 0.896265 0.150798
C18 C 1.4105(7) 0.7287(6) 0.0934(5)
C19 C 1.3459(7) 0.6912(7) -0.0498(5)
O2 O 1.6221(5) 0.6089(4) 1.3236(3)
H14 H 1.617779 0.542677 1.264960
O3 O 1.6077(5) 0.8369(4) 1.4906(3)
H15 H 1.648026 0.783716 1.507221
O4 O 1.3142(5) 0.7901(4) 0.9226(3)
H4 H 1.279131 0.765755 0.843451
O5 O 1.3275(5) 0.5813(5) 0.8698(3)
C13 C 1.4794(7) 0.6478(6) 1.1404(5)
H13 H 1.478938 0.568838 1.081719
C14 C 1.5479(7) 0.6818(6) 1.2709(5)
C15 C 1.5418(7) 0.7962(6) 1.3591(5)
C16 C 1.4686(8) 0.8749(6) 1.3128(5)
H16 H 1.462211 0.950286 1.370679
C17 C 1.4050(8) 0.8418(6) 1.1809(5)
H17 H 1.358008 0.896265 1.150798
C18 C 1.4105(7) 0.7287(6) 1.0934(5)
C19 C 1.3459(7) 0.6912(7) 0.9502(5)
O2 O 0.3779(5) 0.3911(4) 0.6764(3)
H14 H 0.382221 0.457323 0.735040
O3 O 0.3923(5) 0.1631(4) 0.5094(3)
H15 H 0.351974 0.216284 0.492779
O4 O 0.6858(5) 0.2099(4) 1.0774(3)
H4 H 0.720869 0.234245 1.156549
O5 O 0.6725(5) 0.4187(5) 1.1302(3)
C13 C 0.5206(7) 0.3522(6) 0.8596(5)
H13 H 0.521062 0.431162 0.918281
C14 C 0.4521(7) 0.3182(6) 0.7291(5)
C15 C 0.4582(7) 0.2038(6) 0.6409(5)
C16 C 0.5314(8) 0.1251(6) 0.6872(5)
H16 H 0.537789 0.049714 0.629321
C17 C 0.5950(8) 0.1582(6) 0.8191(5)
H17 H 0.641992 0.103735 0.849202
C18 C 0.5895(7) 0.2713(6) 0.9066(5)
C19 C 0.6541(7) 0.3088(7) 1.0498(5)
O2 O 0.3779(5) 1.3911(4) 0.6764(3)
H14 H 0.382221 1.457323 0.735040
O3 O 0.3923(5) 1.1631(4) 0.5094(3)
H15 H 0.351974 1.216284 0.492779
O4 O 0.6858(5) 1.2099(4) 1.0774(3)
H4 H 0.720869 1.234245 1.156549
O5 O 0.6725(5) 1.4187(5) 1.1302(3)
C13 C 0.5206(7) 1.3522(6) 0.8596(5)
H13 H 0.521062 1.431162 0.918281
C14 C 0.4521(7) 1.3182(6) 0.7291(5)
C15 C 0.4582(7) 1.2038(6) 0.6409(5)
C16 C 0.5314(8) 1.1251(6) 0.6872(5)
H16 H 0.537789 1.049714 0.629321
C17 C 0.5950(8) 1.1582(6) 0.8191(5)
H17 H 0.641992 1.103735 0.849202
C18 C 0.5895(7) 1.2713(6) 0.9066(5)
C19 C 0.6541(7) 1.3088(7) 1.0498(5)

#END
