
#######################################################################
#
#                 Cambridge Crystallographic Data Centre
#                                CCDC 
#
#######################################################################
#
# If this CIF has been generated from an entry in the Cambridge 
# Structural Database, then it will include bibliographic, chemical, 
# crystal, experimental, refinement or atomic coordinate data resulting 
# from the CCDC's data processing and validation procedures.
#
#######################################################################

data_shelx_CCDC10
_symmetry_cell_setting           monoclinic
_symmetry_space_group_name_H-M   'P 21/n'
_symmetry_Int_Tables_number      14
_space_group_name_Hall           '-P 2yn'
loop_
_symmetry_equiv_pos_site_id
_symmetry_equiv_pos_as_xyz
1 x,y,z
2 1/2-x,1/2+y,1/2-z
3 -x,-y,-z
4 1/2+x,1/2-y,1/2+z
_cell_length_a                   14.6532(3)
_cell_length_b                   4.52630(10)
_cell_length_c                   18.6301(4)
_cell_angle_alpha                90
_cell_angle_beta                 92.499(2)
_cell_angle_gamma                90
_cell_volume                     1234.46
loop_
_atom_site_label
_atom_site_type_symbol
_atom_site_fract_x
_atom_site_fract_y
_atom_site_fract_z
Br1 Br 0.70827(2) -0.41954(9) 0.36329(2)
O1 O 0.55240(15) -0.0065(6) 0.39292(11)
H1 H 0.518490 0.134705 0.398899
N1 N 0.41729(16) 0.3509(6) 0.35884(13)
C1 C 0.55344(19) -0.0703(7) 0.32280(15)
Br2 Br 0.55876(3) -0.33084(13) 0.07958(2)
C2 C 0.6188(2) -0.2630(7) 0.29749(17)
N3 N 0.22033(19) 0.8695(7) 0.35313(16)
C3 C 0.6202(2) -0.3418(8) 0.22609(16)
H3 H 0.663819 -0.474059 0.210635
C4 C 0.5563(2) -0.2222(8) 0.17765(17)
C5 C 0.4923(2) -0.0239(8) 0.19945(16)
H5 H 0.450437 0.057980 0.166136
C6 C 0.49017(19) 0.0552(7) 0.27247(15)
C7 C 0.42379(19) 0.2729(7) 0.29346(16)
H7 H 0.385001 0.357736 0.258399
C9 C 0.2824(2) 0.6724(8) 0.33349(18)
H9 H 0.278794 0.604870 0.286301
C8 C 0.35200(18) 0.5616(7) 0.37880(15)
C10 C 0.2259(2) 0.9608(8) 0.42125(18)
H10 H 0.182795 1.095677 0.436203
C11 C 0.2919(2) 0.8663(8) 0.47034(17)
H11 H 0.293510 0.937053 0.517243
C12 C 0.3559(2) 0.6649(7) 0.44918(16)
H12 H 0.401370 0.598542 0.481676
Br1 Br 0.70827(2) -0.41954(9) 1.36329(2)
O1 O 0.55240(15) -0.0065(6) 1.39292(11)
H1 H 0.518490 0.134705 1.398899
N1 N 0.41729(16) 0.3509(6) 1.35884(13)
C1 C 0.55344(19) -0.0703(7) 1.32280(15)
Br2 Br 0.55876(3) -0.33084(13) 1.07958(2)
C2 C 0.6188(2) -0.2630(7) 1.29749(17)
N3 N 0.22033(19) 0.8695(7) 1.35313(16)
C3 C 0.6202(2) -0.3418(8) 1.22609(16)
H3 H 0.663819 -0.474059 1.210635
C4 C 0.5563(2) -0.2222(8) 1.17765(17)
C5 C 0.4923(2) -0.0239(8) 1.19945(16)
H5 H 0.450437 0.057980 1.166136
C6 C 0.49017(19) 0.0552(7) 1.27247(15)
C7 C 0.42379(19) 0.2729(7) 1.29346(16)
H7 H 0.385001 0.357736 1.258399
C9 C 0.2824(2) 0.6724(8) 1.33349(18)
H9 H 0.278794 0.604870 1.286301
C8 C 0.35200(18) 0.5616(7) 1.37880(15)
C10 C 0.2259(2) 0.9608(8) 1.42125(18)
H10 H 0.182795 1.095677 1.436203
C11 C 0.2919(2) 0.8663(8) 1.47034(17)
H11 H 0.293510 0.937053 1.517243
C12 C 0.3559(2) 0.6649(7) 1.44918(16)
H12 H 0.401370 0.598542 1.481676
Br1 Br 0.70827(2) 0.58046(9) 0.36329(2)
O1 O 0.55240(15) 0.9935(6) 0.39292(11)
H1 H 0.518490 1.134705 0.398899
N1 N 0.41729(16) 1.3509(6) 0.35884(13)
C1 C 0.55344(19) 0.9297(7) 0.32280(15)
Br2 Br 0.55876(3) 0.66916(13) 0.07958(2)
C2 C 0.6188(2) 0.7370(7) 0.29749(17)
N3 N 0.22033(19) 1.8695(7) 0.35313(16)
C3 C 0.6202(2) 0.6582(8) 0.22609(16)
H3 H 0.663819 0.525941 0.210635
C4 C 0.5563(2) 0.7778(8) 0.17765(17)
C5 C 0.4923(2) 0.9761(8) 0.19945(16)
H5 H 0.450437 1.057980 0.166136
C6 C 0.49017(19) 1.0552(7) 0.27247(15)
C7 C 0.42379(19) 1.2729(7) 0.29346(16)
H7 H 0.385001 1.357736 0.258399
C9 C 0.2824(2) 1.6724(8) 0.33349(18)
H9 H 0.278794 1.604870 0.286301
C8 C 0.35200(18) 1.5616(7) 0.37880(15)
C10 C 0.2259(2) 1.9608(8) 0.42125(18)
H10 H 0.182795 2.095677 0.436203
C11 C 0.2919(2) 1.8663(8) 0.47034(17)
H11 H 0.293510 1.937053 0.517243
C12 C 0.3559(2) 1.6649(7) 0.44918(16)
H12 H 0.401370 1.598542 0.481676
Br1 Br 0.70827(2) 0.58046(9) 1.36329(2)
O1 O 0.55240(15) 0.9935(6) 1.39292(11)
H1 H 0.518490 1.134705 1.398899
N1 N 0.41729(16) 1.3509(6) 1.35884(13)
C1 C 0.55344(19) 0.9297(7) 1.32280(15)
Br2 Br 0.55876(3) 0.66916(13) 1.07958(2)
C2 C 0.6188(2) 0.7370(7) 1.29749(17)
N3 N 0.22033(19) 1.8695(7) 1.35313(16)
C3 C 0.6202(2) 0.6582(8) 1.22609(16)
H3 H 0.663819 0.525941 1.210635
C4 C 0.5563(2) 0.7778(8) 1.17765(17)
C5 C 0.4923(2) 0.9761(8) 1.19945(16)
H5 H 0.450437 1.057980 1.166136
C6 C 0.49017(19) 1.0552(7) 1.27247(15)
C7 C 0.42379(19) 1.2729(7) 1.29346(16)
H7 H 0.385001 1.357736 1.258399
C9 C 0.2824(2) 1.6724(8) 1.33349(18)
H9 H 0.278794 1.604870 1.286301
C8 C 0.35200(18) 1.5616(7) 1.37880(15)
C10 C 0.2259(2) 1.9608(8) 1.42125(18)
H10 H 0.182795 2.095677 1.436203
C11 C 0.2919(2) 1.8663(8) 1.47034(17)
H11 H 0.293510 1.937053 1.517243
C12 C 0.3559(2) 1.6649(7) 1.44918(16)
H12 H 0.401370 1.598542 1.481676
Br1 Br 1.70827(2) -0.41954(9) 0.36329(2)
O1 O 1.55240(15) -0.0065(6) 0.39292(11)
H1 H 1.518490 0.134705 0.398899
N1 N 1.41729(16) 0.3509(6) 0.35884(13)
C1 C 1.55344(19) -0.0703(7) 0.32280(15)
Br2 Br 1.55876(3) -0.33084(13) 0.07958(2)
C2 C 1.6188(2) -0.2630(7) 0.29749(17)
N3 N 1.22033(19) 0.8695(7) 0.35313(16)
C3 C 1.6202(2) -0.3418(8) 0.22609(16)
H3 H 1.663819 -0.474059 0.210635
C4 C 1.5563(2) -0.2222(8) 0.17765(17)
C5 C 1.4923(2) -0.0239(8) 0.19945(16)
H5 H 1.450437 0.057980 0.166136
C6 C 1.49017(19) 0.0552(7) 0.27247(15)
C7 C 1.42379(19) 0.2729(7) 0.29346(16)
H7 H 1.385001 0.357736 0.258399
C9 C 1.2824(2) 0.6724(8) 0.33349(18)
H9 H 1.278794 0.604870 0.286301
C8 C 1.35200(18) 0.5616(7) 0.37880(15)
C10 C 1.2259(2) 0.9608(8) 0.42125(18)
H10 H 1.182795 1.095677 0.436203
C11 C 1.2919(2) 0.8663(8) 0.47034(17)
H11 H 1.293510 0.937053 0.517243
C12 C 1.3559(2) 0.6649(7) 0.44918(16)
H12 H 1.401370 0.598542 0.481676
Br1 Br 1.70827(2) -0.41954(9) 1.36329(2)
O1 O 1.55240(15) -0.0065(6) 1.39292(11)
H1 H 1.518490 0.134705 1.398899
N1 N 1.41729(16) 0.3509(6) 1.35884(13)
C1 C 1.55344(19) -0.0703(7) 1.32280(15)
Br2 Br 1.55876(3) -0.33084(13) 1.07958(2)
C2 C 1.6188(2) -0.2630(7) 1.29749(17)
N3 N 1.22033(19) 0.8695(7) 1.35313(16)
C3 C 1.6202(2) -0.3418(8) 1.22609(16)
H3 H 1.663819 -0.474059 1.210635
C4 C 1.5563(2) -0.2222(8) 1.17765(17)
C5 C 1.4923(2) -0.0239(8) 1.19945(16)
H5 H 1.450437 0.057980 1.166136
C6 C 1.49017(19) 0.0552(7) 1.27247(15)
C7 C 1.42379(19) 0.2729(7) 1.29346(16)
H7 H 1.385001 0.357736 1.258399
C9 C 1.2824(2) 0.6724(8) 1.33349(18)
H9 H 1.278794 0.604870 1.286301
C8 C 1.35200(18) 0.5616(7) 1.37880(15)
C10 C 1.2259(2) 0.9608(8) 1.42125(18)
H10 H 1.182795 1.095677 1.436203
C11 C 1.2919(2) 0.8663(8) 1.47034(17)
H11 H 1.293510 0.937053 1.517243
C12 C 1.3559(2) 0.6649(7) 1.44918(16)
H12 H 1.401370 0.598542 1.481676
Br1 Br 1.70827(2) 0.58046(9) 0.36329(2)
O1 O 1.55240(15) 0.9935(6) 0.39292(11)
H1 H 1.518490 1.134705 0.398899
N1 N 1.41729(16) 1.3509(6) 0.35884(13)
C1 C 1.55344(19) 0.9297(7) 0.32280(15)
Br2 Br 1.55876(3) 0.66916(13) 0.07958(2)
C2 C 1.6188(2) 0.7370(7) 0.29749(17)
N3 N 1.22033(19) 1.8695(7) 0.35313(16)
C3 C 1.6202(2) 0.6582(8) 0.22609(16)
H3 H 1.663819 0.525941 0.210635
C4 C 1.5563(2) 0.7778(8) 0.17765(17)
C5 C 1.4923(2) 0.9761(8) 0.19945(16)
H5 H 1.450437 1.057980 0.166136
C6 C 1.49017(19) 1.0552(7) 0.27247(15)
C7 C 1.42379(19) 1.2729(7) 0.29346(16)
H7 H 1.385001 1.357736 0.258399
C9 C 1.2824(2) 1.6724(8) 0.33349(18)
H9 H 1.278794 1.604870 0.286301
C8 C 1.35200(18) 1.5616(7) 0.37880(15)
C10 C 1.2259(2) 1.9608(8) 0.42125(18)
H10 H 1.182795 2.095677 0.436203
C11 C 1.2919(2) 1.8663(8) 0.47034(17)
H11 H 1.293510 1.937053 0.517243
C12 C 1.3559(2) 1.6649(7) 0.44918(16)
H12 H 1.401370 1.598542 0.481676
Br1 Br 1.70827(2) 0.58046(9) 1.36329(2)
O1 O 1.55240(15) 0.9935(6) 1.39292(11)
H1 H 1.518490 1.134705 1.398899
N1 N 1.41729(16) 1.3509(6) 1.35884(13)
C1 C 1.55344(19) 0.9297(7) 1.32280(15)
Br2 Br 1.55876(3) 0.66916(13) 1.07958(2)
C2 C 1.6188(2) 0.7370(7) 1.29749(17)
N3 N 1.22033(19) 1.8695(7) 1.35313(16)
C3 C 1.6202(2) 0.6582(8) 1.22609(16)
H3 H 1.663819 0.525941 1.210635
C4 C 1.5563(2) 0.7778(8) 1.17765(17)
C5 C 1.4923(2) 0.9761(8) 1.19945(16)
H5 H 1.450437 1.057980 1.166136
C6 C 1.49017(19) 1.0552(7) 1.27247(15)
C7 C 1.42379(19) 1.2729(7) 1.29346(16)
H7 H 1.385001 1.357736 1.258399
C9 C 1.2824(2) 1.6724(8) 1.33349(18)
H9 H 1.278794 1.604870 1.286301
C8 C 1.35200(18) 1.5616(7) 1.37880(15)
C10 C 1.2259(2) 1.9608(8) 1.42125(18)
H10 H 1.182795 2.095677 1.436203
C11 C 1.2919(2) 1.8663(8) 1.47034(17)
H11 H 1.293510 1.937053 1.517243
C12 C 1.3559(2) 1.6649(7) 1.44918(16)
H12 H 1.401370 1.598542 1.481676
Br1 Br -0.20827(2) 0.08046(9) 0.13671(2)
O1 O -0.05240(15) 0.4935(6) 0.10708(11)
H1 H -0.018490 0.634705 0.101101
N1 N 0.08271(16) 0.8509(6) 0.14116(13)
C1 C -0.05344(19) 0.4297(7) 0.17720(15)
Br2 Br -0.05876(3) 0.16916(13) 0.42042(2)
C2 C -0.1188(2) 0.2370(7) 0.20251(17)
N3 N 0.27967(19) 1.3695(7) 0.14687(16)
C3 C -0.1202(2) 0.1582(8) 0.27391(16)
H3 H -0.163819 0.025941 0.289365
C4 C -0.0563(2) 0.2778(8) 0.32235(17)
C5 C 0.0077(2) 0.4761(8) 0.30055(16)
H5 H 0.049563 0.557980 0.333864
C6 C 0.00983(19) 0.5552(7) 0.22753(15)
C7 C 0.07621(19) 0.7729(7) 0.20654(16)
H7 H 0.114999 0.857736 0.241601
C9 C 0.2176(2) 1.1724(8) 0.16651(18)
H9 H 0.221206 1.104870 0.213699
C8 C 0.14800(18) 1.0616(7) 0.12120(15)
C10 C 0.2741(2) 1.4608(8) 0.07875(18)
H10 H 0.317205 1.595677 0.063797
C11 C 0.2081(2) 1.3663(8) 0.02966(17)
H11 H 0.206490 1.437053 -0.017243
C12 C 0.1441(2) 1.1649(7) 0.05082(16)
H12 H 0.098630 1.098542 0.018324
Br1 Br -0.20827(2) 0.08046(9) 1.13671(2)
O1 O -0.05240(15) 0.4935(6) 1.10708(11)
H1 H -0.018490 0.634705 1.101101
N1 N 0.08271(16) 0.8509(6) 1.14116(13)
C1 C -0.05344(19) 0.4297(7) 1.17720(15)
Br2 Br -0.05876(3) 0.16916(13) 1.42042(2)
C2 C -0.1188(2) 0.2370(7) 1.20251(17)
N3 N 0.27967(19) 1.3695(7) 1.14687(16)
C3 C -0.1202(2) 0.1582(8) 1.27391(16)
H3 H -0.163819 0.025941 1.289365
C4 C -0.0563(2) 0.2778(8) 1.32235(17)
C5 C 0.0077(2) 0.4761(8) 1.30055(16)
H5 H 0.049563 0.557980 1.333864
C6 C 0.00983(19) 0.5552(7) 1.22753(15)
C7 C 0.07621(19) 0.7729(7) 1.20654(16)
H7 H 0.114999 0.857736 1.241601
C9 C 0.2176(2) 1.1724(8) 1.16651(18)
H9 H 0.221206 1.104870 1.213699
C8 C 0.14800(18) 1.0616(7) 1.12120(15)
C10 C 0.2741(2) 1.4608(8) 1.07875(18)
H10 H 0.317205 1.595677 1.063797
C11 C 0.2081(2) 1.3663(8) 1.02966(17)
H11 H 0.206490 1.437053 0.982757
C12 C 0.1441(2) 1.1649(7) 1.05082(16)
H12 H 0.098630 1.098542 1.018324
Br1 Br 0.79173(2) 0.08046(9) 0.13671(2)
O1 O 0.94760(15) 0.4935(6) 0.10708(11)
H1 H 0.981510 0.634705 0.101101
N1 N 1.08271(16) 0.8509(6) 0.14116(13)
C1 C 0.94656(19) 0.4297(7) 0.17720(15)
Br2 Br 0.94124(3) 0.16916(13) 0.42042(2)
C2 C 0.8812(2) 0.2370(7) 0.20251(17)
N3 N 1.27967(19) 1.3695(7) 0.14687(16)
C3 C 0.8798(2) 0.1582(8) 0.27391(16)
H3 H 0.836181 0.025941 0.289365
C4 C 0.9437(2) 0.2778(8) 0.32235(17)
C5 C 1.0077(2) 0.4761(8) 0.30055(16)
H5 H 1.049563 0.557980 0.333864
C6 C 1.00983(19) 0.5552(7) 0.22753(15)
C7 C 1.07621(19) 0.7729(7) 0.20654(16)
H7 H 1.114999 0.857736 0.241601
C9 C 1.2176(2) 1.1724(8) 0.16651(18)
H9 H 1.221206 1.104870 0.213699
C8 C 1.14800(18) 1.0616(7) 0.12120(15)
C10 C 1.2741(2) 1.4608(8) 0.07875(18)
H10 H 1.317205 1.595677 0.063797
C11 C 1.2081(2) 1.3663(8) 0.02966(17)
H11 H 1.206490 1.437053 -0.017243
C12 C 1.1441(2) 1.1649(7) 0.05082(16)
H12 H 1.098630 1.098542 0.018324
Br1 Br 0.79173(2) 0.08046(9) 1.13671(2)
O1 O 0.94760(15) 0.4935(6) 1.10708(11)
H1 H 0.981510 0.634705 1.101101
N1 N 1.08271(16) 0.8509(6) 1.14116(13)
C1 C 0.94656(19) 0.4297(7) 1.17720(15)
Br2 Br 0.94124(3) 0.16916(13) 1.42042(2)
C2 C 0.8812(2) 0.2370(7) 1.20251(17)
N3 N 1.27967(19) 1.3695(7) 1.14687(16)
C3 C 0.8798(2) 0.1582(8) 1.27391(16)
H3 H 0.836181 0.025941 1.289365
C4 C 0.9437(2) 0.2778(8) 1.32235(17)
C5 C 1.0077(2) 0.4761(8) 1.30055(16)
H5 H 1.049563 0.557980 1.333864
C6 C 1.00983(19) 0.5552(7) 1.22753(15)
C7 C 1.07621(19) 0.7729(7) 1.20654(16)
H7 H 1.114999 0.857736 1.241601
C9 C 1.2176(2) 1.1724(8) 1.16651(18)
H9 H 1.221206 1.104870 1.213699
C8 C 1.14800(18) 1.0616(7) 1.12120(15)
C10 C 1.2741(2) 1.4608(8) 1.07875(18)
H10 H 1.317205 1.595677 1.063797
C11 C 1.2081(2) 1.3663(8) 1.02966(17)
H11 H 1.206490 1.437053 0.982757
C12 C 1.1441(2) 1.1649(7) 1.05082(16)
H12 H 1.098630 1.098542 1.018324
Br1 Br 0.29173(2) 1.41954(9) 0.63671(2)
O1 O 0.44760(15) 1.0065(6) 0.60708(11)
H1 H 0.481510 0.865295 0.601101
N1 N 0.58271(16) 0.6491(6) 0.64116(13)
C1 C 0.44656(19) 1.0703(7) 0.67720(15)
Br2 Br 0.44124(3) 1.33084(13) 0.92042(2)
C2 C 0.3812(2) 1.2630(7) 0.70251(17)
N3 N 0.77967(19) 0.1305(7) 0.64687(16)
C3 C 0.3798(2) 1.3418(8) 0.77391(16)
H3 H 0.336181 1.474059 0.789365
C4 C 0.4437(2) 1.2222(8) 0.82235(17)
C5 C 0.5077(2) 1.0239(8) 0.80055(16)
H5 H 0.549563 0.942020 0.833864
C6 C 0.50983(19) 0.9448(7) 0.72753(15)
C7 C 0.57621(19) 0.7271(7) 0.70654(16)
H7 H 0.614999 0.642264 0.741601
C9 C 0.7176(2) 0.3276(8) 0.66651(18)
H9 H 0.721206 0.395130 0.713699
C8 C 0.64800(18) 0.4384(7) 0.62120(15)
C10 C 0.7741(2) 0.0392(8) 0.57875(18)
H10 H 0.817205 -0.095677 0.563797
C11 C 0.7081(2) 0.1337(8) 0.52966(17)
H11 H 0.706490 0.062947 0.482757
C12 C 0.6441(2) 0.3351(7) 0.55082(16)
H12 H 0.598630 0.401458 0.518324
Br1 Br 1.20827(2) 0.91954(9) 0.86329(2)
O1 O 1.05240(15) 0.5065(6) 0.89292(11)
H1 H 1.018490 0.365295 0.898899
N1 N 0.91729(16) 0.1491(6) 0.85884(13)
C1 C 1.05344(19) 0.5703(7) 0.82280(15)
Br2 Br 1.05876(3) 0.83084(13) 0.57958(2)
C2 C 1.1188(2) 0.7630(7) 0.79749(17)
N3 N 0.72033(19) -0.3695(7) 0.85313(16)
C3 C 1.1202(2) 0.8418(8) 0.72609(16)
H3 H 1.163819 0.974059 0.710635
C4 C 1.0563(2) 0.7222(8) 0.67765(17)
C5 C 0.9923(2) 0.5239(8) 0.69945(16)
H5 H 0.950437 0.442020 0.666136
C6 C 0.99017(19) 0.4448(7) 0.77247(15)
C7 C 0.92379(19) 0.2271(7) 0.79346(16)
H7 H 0.885001 0.142264 0.758399
C9 C 0.7824(2) -0.1724(8) 0.83349(18)
H9 H 0.778794 -0.104870 0.786301
C8 C 0.85200(18) -0.0616(7) 0.87880(15)
C10 C 0.7259(2) -0.4608(8) 0.92125(18)
H10 H 0.682795 -0.595677 0.936203
C11 C 0.7919(2) -0.3663(8) 0.97034(17)
H11 H 0.793510 -0.437053 1.017243
C12 C 0.8559(2) -0.1649(7) 0.94918(16)
H12 H 0.901370 -0.098542 0.981676
Br1 Br 1.20827(2) 1.91954(9) 0.86329(2)
O1 O 1.05240(15) 1.5065(6) 0.89292(11)
H1 H 1.018490 1.365295 0.898899
N1 N 0.91729(16) 1.1491(6) 0.85884(13)
C1 C 1.05344(19) 1.5703(7) 0.82280(15)
Br2 Br 1.05876(3) 1.83084(13) 0.57958(2)
C2 C 1.1188(2) 1.7630(7) 0.79749(17)
N3 N 0.72033(19) 0.6305(7) 0.85313(16)
C3 C 1.1202(2) 1.8418(8) 0.72609(16)
H3 H 1.163819 1.974059 0.710635
C4 C 1.0563(2) 1.7222(8) 0.67765(17)
C5 C 0.9923(2) 1.5239(8) 0.69945(16)
H5 H 0.950437 1.442020 0.666136
C6 C 0.99017(19) 1.4448(7) 0.77247(15)
C7 C 0.92379(19) 1.2271(7) 0.79346(16)
H7 H 0.885001 1.142264 0.758399
C9 C 0.7824(2) 0.8276(8) 0.83349(18)
H9 H 0.778794 0.895130 0.786301
C8 C 0.85200(18) 0.9384(7) 0.87880(15)
C10 C 0.7259(2) 0.5392(8) 0.92125(18)
H10 H 0.682795 0.404323 0.936203
C11 C 0.7919(2) 0.6337(8) 0.97034(17)
H11 H 0.793510 0.562947 1.017243
C12 C 0.8559(2) 0.8351(7) 0.94918(16)
H12 H 0.901370 0.901458 0.981676

#END
