
#######################################################################
#
#                 Cambridge Crystallographic Data Centre
#                                CCDC 
#
#######################################################################
#
# If this CIF has been generated from an entry in the Cambridge 
# Structural Database, then it will include bibliographic, chemical, 
# crystal, experimental, refinement or atomic coordinate data resulting 
# from the CCDC's data processing and validation procedures.
#
#######################################################################

data_shelx_CCDC8
_symmetry_cell_setting           triclinic
_symmetry_space_group_name_H-M   'P 1'
_symmetry_Int_Tables_number      1
_space_group_name_Hall           'P 1'
loop_
_symmetry_equiv_pos_site_id
_symmetry_equiv_pos_as_xyz
1 x,y,z
_cell_length_a                   8.2123(2)
_cell_length_b                   12.3360(2)
_cell_length_c                   13.0008(2)
_cell_angle_alpha                65.6550(10)
_cell_angle_beta                 78.6480(10)
_cell_angle_gamma                83.5680(10)
_cell_volume                     1175.78
loop_
_atom_site_label
_atom_site_type_symbol
_atom_site_fract_x
_atom_site_fract_y
_atom_site_fract_z
Br1 Br 0.55325(15) 1.26578(11) 0.25090(11)
O1 O 0.8975(9) 0.7868(7) 0.4530(6)
H1A H 0.850904 0.747956 0.518138
N1 N 0.6766(9) 0.7387(7) 0.6355(7)
N2 N 0.3853(9) 0.5695(6) 0.8976(6)
C1 C 0.8152(12) 0.8937(9) 0.4091(8)
C2 C 0.8765(14) 0.9765(10) 0.3021(9)
H2 H 0.973449 0.958291 0.260732
C3 C 0.7973(15) 1.0849(10) 0.2557(9)
H3 H 0.839774 1.139395 0.183090
C4 C 0.6560(13) 1.1131(9) 0.3161(9)
C5 C 0.5916(12) 1.0327(9) 0.4236(9)
H5 H 0.494744 1.052888 0.463607
C6 C 0.6693(11) 0.9225(8) 0.4727(7)
C7 C 0.6074(12) 0.8418(9) 0.5878(8)
H7 H 0.514576 0.864979 0.628867
C8 C 0.6115(11) 0.6598(8) 0.7503(8)
C9 C 0.4458(10) 0.6476(8) 0.7932(8)
H9 H 0.370853 0.696523 0.747115
C10 C 0.4953(12) 0.5031(9) 0.9605(9)
H10 H 0.455485 0.448629 1.033818
C11 C 0.6655(12) 0.5081(10) 0.9260(9)
H11 H 0.737333 0.459181 0.974657
C12 C 0.7256(12) 0.5881(10) 0.8171(9)
H12 H 0.839139 0.593669 0.789440
Br2 Br 0.6114(2) 0.18164(14) 0.91589(13)
O2 O 0.1174(9) 0.5512(7) 0.6752(7)
H2A H 0.160929 0.593818 0.610463
N3 N 0.3639(9) 0.6421(6) 0.5051(6)
N4 N 0.3975(10) 0.9243(7) 0.2558(7)
C13 C 0.2257(13) 0.4667(9) 0.7247(8)
C14 C 0.1797(15) 0.3756(10) 0.8326(9)
H14 H 0.069214 0.372570 0.867865
C15 C 0.2903(16) 0.2913(9) 0.8879(9)
H15 H 0.255071 0.231887 0.959450
C16 C 0.4527(16) 0.2945(9) 0.8380(9)
C17 C 0.5074(14) 0.3796(9) 0.7314(8)
H17 H 0.618386 0.379137 0.697919
C18 C 0.3964(12) 0.4661(8) 0.6740(8)
C19 C 0.4565(12) 0.5576(8) 0.5626(7)
H19 H 0.568220 0.554366 0.531636
C20 C 0.4284(10) 0.7260(7) 0.3956(7)
C21 C 0.5613(11) 0.7023(8) 0.3221(8)
H21 H 0.615912 0.628081 0.343468
C22 C 0.6096(12) 0.7930(8) 0.2162(8)
H22 H 0.697707 0.780052 0.164936
C23 C 0.5276(12) 0.9014(8) 0.1871(9)
H23 H 0.563828 0.961748 0.116457
C24 C 0.3486(12) 0.8372(8) 0.3571(8)
H24 H 0.256096 0.851672 0.404484
Br2 Br 1.6114(2) 0.18164(14) 0.91589(13)
O2 O 1.1174(9) 0.5512(7) 0.6752(7)
H2A H 1.160929 0.593818 0.610463
N3 N 1.3639(9) 0.6421(6) 0.5051(6)
N4 N 1.3975(10) 0.9243(7) 0.2558(7)
C13 C 1.2257(13) 0.4667(9) 0.7247(8)
C14 C 1.1797(15) 0.3756(10) 0.8326(9)
H14 H 1.069214 0.372570 0.867865
C15 C 1.2903(16) 0.2913(9) 0.8879(9)
H15 H 1.255071 0.231887 0.959450
C16 C 1.4527(16) 0.2945(9) 0.8380(9)
C17 C 1.5074(14) 0.3796(9) 0.7314(8)
H17 H 1.618386 0.379137 0.697919
C18 C 1.3964(12) 0.4661(8) 0.6740(8)
C19 C 1.4565(12) 0.5576(8) 0.5626(7)
H19 H 1.568220 0.554366 0.531636
C20 C 1.4284(10) 0.7260(7) 0.3956(7)
C21 C 1.5613(11) 0.7023(8) 0.3221(8)
H21 H 1.615912 0.628081 0.343468
C22 C 1.6096(12) 0.7930(8) 0.2162(8)
H22 H 1.697707 0.780052 0.164936
C23 C 1.5276(12) 0.9014(8) 0.1871(9)
H23 H 1.563828 0.961748 0.116457
C24 C 1.3486(12) 0.8372(8) 0.3571(8)
H24 H 1.256096 0.851672 0.404484
Br3 Br 0.00446(13) 1.00417(10) -0.00360(9)
O3 O 0.4505(8) 0.5698(6) 0.1755(6)
H3A H 0.408827 0.523454 0.239224
N5 N 0.2326(8) 0.4937(6) 0.3627(6)
N6 N 0.2660(9) 0.2259(7) 0.6163(7)
C25 C 0.3482(12) 0.6650(8) 0.1381(8)
C26 C 0.3913(12) 0.7534(8) 0.0279(9)
H26 H 0.489983 0.744575 -0.017712
C27 C 0.2907(13) 0.8526(9) -0.0136(9)
H27 H 0.321063 0.910282 -0.087012
C28 C 0.1438(12) 0.8669(8) 0.0535(8)
C29 C 0.0961(11) 0.7795(8) 0.1604(8)
H29 H -0.005238 0.788471 0.203435
C30 C 0.1953(10) 0.6786(7) 0.2054(7)
C31 C 0.1439(11) 0.5874(8) 0.3191(8)
H31 H 0.042684 0.597943 0.361416
C32 C 0.1804(10) 0.4048(7) 0.4719(7)
C33 C 0.2960(11) 0.3174(8) 0.5151(8)
H33 H 0.401423 0.321979 0.471636
C34 C 0.1157(12) 0.2164(9) 0.6751(8)
H34 H 0.092980 0.151350 0.744648
C35 C -0.0094(12) 0.2983(11) 0.6382(9)
H35 H -0.114542 0.289713 0.682754
C36 C 0.0220(12) 0.3935(10) 0.5347(9)
H36 H -0.061892 0.449408 0.507317
Br3 Br 0.00446(13) 1.00417(10) 0.99640(9)
O3 O 0.4505(8) 0.5698(6) 1.1755(6)
H3A H 0.408827 0.523454 1.239224
N5 N 0.2326(8) 0.4937(6) 1.3627(6)
N6 N 0.2660(9) 0.2259(7) 1.6163(7)
C25 C 0.3482(12) 0.6650(8) 1.1381(8)
C26 C 0.3913(12) 0.7534(8) 1.0279(9)
H26 H 0.489983 0.744575 0.982288
C27 C 0.2907(13) 0.8526(9) 0.9864(9)
H27 H 0.321063 0.910282 0.912988
C28 C 0.1438(12) 0.8669(8) 1.0535(8)
C29 C 0.0961(11) 0.7795(8) 1.1604(8)
H29 H -0.005238 0.788471 1.203435
C30 C 0.1953(10) 0.6786(7) 1.2054(7)
C31 C 0.1439(11) 0.5874(8) 1.3191(8)
H31 H 0.042684 0.597943 1.361416
C32 C 0.1804(10) 0.4048(7) 1.4719(7)
C33 C 0.2960(11) 0.3174(8) 1.5151(8)
H33 H 0.401423 0.321979 1.471636
C34 C 0.1157(12) 0.2164(9) 1.6751(8)
H34 H 0.092980 0.151350 1.744648
C35 C -0.0094(12) 0.2983(11) 1.6382(9)
H35 H -0.114542 0.289713 1.682754
C36 C 0.0220(12) 0.3935(10) 1.5347(9)
H36 H -0.061892 0.449408 1.507317
Br3 Br 1.00446(13) 1.00417(10) -0.00360(9)
O3 O 1.4505(8) 0.5698(6) 0.1755(6)
H3A H 1.408827 0.523454 0.239224
N5 N 1.2326(8) 0.4937(6) 0.3627(6)
N6 N 1.2660(9) 0.2259(7) 0.6163(7)
C25 C 1.3482(12) 0.6650(8) 0.1381(8)
C26 C 1.3913(12) 0.7534(8) 0.0279(9)
H26 H 1.489983 0.744575 -0.017712
C27 C 1.2907(13) 0.8526(9) -0.0136(9)
H27 H 1.321063 0.910282 -0.087012
C28 C 1.1438(12) 0.8669(8) 0.0535(8)
C29 C 1.0961(11) 0.7795(8) 0.1604(8)
H29 H 0.994762 0.788471 0.203435
C30 C 1.1953(10) 0.6786(7) 0.2054(7)
C31 C 1.1439(11) 0.5874(8) 0.3191(8)
H31 H 1.042684 0.597943 0.361416
C32 C 1.1804(10) 0.4048(7) 0.4719(7)
C33 C 1.2960(11) 0.3174(8) 0.5151(8)
H33 H 1.401423 0.321979 0.471636
C34 C 1.1157(12) 0.2164(9) 0.6751(8)
H34 H 1.092980 0.151350 0.744648
C35 C 0.9906(12) 0.2983(11) 0.6382(9)
H35 H 0.885458 0.289713 0.682754
C36 C 1.0220(12) 0.3935(10) 0.5347(9)
H36 H 0.938108 0.449408 0.507317
Br3 Br 1.00446(13) 1.00417(10) 0.99640(9)
O3 O 1.4505(8) 0.5698(6) 1.1755(6)
H3A H 1.408827 0.523454 1.239224
N5 N 1.2326(8) 0.4937(6) 1.3627(6)
N6 N 1.2660(9) 0.2259(7) 1.6163(7)
C25 C 1.3482(12) 0.6650(8) 1.1381(8)
C26 C 1.3913(12) 0.7534(8) 1.0279(9)
H26 H 1.489983 0.744575 0.982288
C27 C 1.2907(13) 0.8526(9) 0.9864(9)
H27 H 1.321063 0.910282 0.912988
C28 C 1.1438(12) 0.8669(8) 1.0535(8)
C29 C 1.0961(11) 0.7795(8) 1.1604(8)
H29 H 0.994762 0.788471 1.203435
C30 C 1.1953(10) 0.6786(7) 1.2054(7)
C31 C 1.1439(11) 0.5874(8) 1.3191(8)
H31 H 1.042684 0.597943 1.361416
C32 C 1.1804(10) 0.4048(7) 1.4719(7)
C33 C 1.2960(11) 0.3174(8) 1.5151(8)
H33 H 1.401423 0.321979 1.471636
C34 C 1.1157(12) 0.2164(9) 1.6751(8)
H34 H 1.092980 0.151350 1.744648
C35 C 0.9906(12) 0.2983(11) 1.6382(9)
H35 H 0.885458 0.289713 1.682754
C36 C 1.0220(12) 0.3935(10) 1.5347(9)
H36 H 0.938108 0.449408 1.507317
O4 O 1.1881(8) 0.9130(7) 0.5972(5)
H4A H 1.184981 0.962354 0.531843
O5 O 0.8383(9) 0.7579(6) 0.9602(5)
H5A H 0.908980 0.703741 0.970209
O6 O 0.6735(8) 1.1965(5) 0.5718(6)
O7 O 0.4916(8) 1.0698(6) 0.7067(6)
H7A H 0.423820 1.119693 0.673836
C37 C 0.7731(10) 1.0082(7) 0.6980(8)
C38 C 0.7435(11) 0.9240(8) 0.8101(8)
H38 H 0.643350 0.924986 0.857847
C39 C 0.8672(11) 0.8383(8) 0.8491(7)
C40 C 1.0148(10) 0.8357(8) 0.7778(8)
H40 H 1.096334 0.777733 0.805423
C41 C 1.0429(11) 0.9184(8) 0.6654(7)
C42 C 0.9216(10) 1.0072(8) 0.6252(8)
H42 H 0.939971 1.064831 0.550708
C43 C 0.6427(11) 1.1020(8) 0.6525(8)
O8 O 0.0609(8) 0.5669(5) 0.0097(5)
H8A H 0.157292 0.559861 -0.019569
O9 O -0.2627(8) 0.4170(6) 0.3801(6)
H9A H -0.278778 0.354719 0.437223
O10 O 0.2438(8) 0.1346(5) 0.1922(5)
H10A H 0.284432 0.066681 0.214831
O11 O 0.1750(8) 0.0907(5) 0.3797(5)
C44 C 0.0795(9) 0.2766(7) 0.2481(7)
C45 C 0.1153(10) 0.3661(7) 0.1408(6)
H45 H 0.198660 0.354455 0.086117
C46 C 0.0266(10) 0.4732(7) 0.1148(7)
C47 C -0.1013(10) 0.4904(7) 0.1944(7)
H47 H -0.163061 0.561835 0.175926
C48 C -0.1356(10) 0.3991(7) 0.3019(7)
C49 C -0.0434(10) 0.2925(7) 0.3300(7)
H49 H -0.064377 0.232668 0.403136
C50 C 0.1717(11) 0.1584(7) 0.2806(7)
O8 O 0.0609(8) 0.5669(5) 1.0097(5)
H8A H 0.157292 0.559861 0.980431
O9 O -0.2627(8) 0.4170(6) 1.3801(6)
H9A H -0.278778 0.354719 1.437223
O10 O 0.2438(8) 0.1346(5) 1.1922(5)
H10A H 0.284432 0.066681 1.214831
O11 O 0.1750(8) 0.0907(5) 1.3797(5)
C44 C 0.0795(9) 0.2766(7) 1.2481(7)
C45 C 0.1153(10) 0.3661(7) 1.1408(6)
H45 H 0.198660 0.354455 1.086117
C46 C 0.0266(10) 0.4732(7) 1.1148(7)
C47 C -0.1013(10) 0.4904(7) 1.1944(7)
H47 H -0.163061 0.561835 1.175926
C48 C -0.1356(10) 0.3991(7) 1.3019(7)
C49 C -0.0434(10) 0.2925(7) 1.3300(7)
H49 H -0.064377 0.232668 1.403136
C50 C 0.1717(11) 0.1584(7) 1.2806(7)
O8 O 0.0609(8) 1.5669(5) 0.0097(5)
H8A H 0.157292 1.559861 -0.019569
O9 O -0.2627(8) 1.4170(6) 0.3801(6)
H9A H -0.278778 1.354719 0.437223
O10 O 0.2438(8) 1.1346(5) 0.1922(5)
H10A H 0.284432 1.066681 0.214831
O11 O 0.1750(8) 1.0907(5) 0.3797(5)
C44 C 0.0795(9) 1.2766(7) 0.2481(7)
C45 C 0.1153(10) 1.3661(7) 0.1408(6)
H45 H 0.198660 1.354455 0.086117
C46 C 0.0266(10) 1.4732(7) 0.1148(7)
C47 C -0.1013(10) 1.4904(7) 0.1944(7)
H47 H -0.163061 1.561835 0.175926
C48 C -0.1356(10) 1.3991(7) 0.3019(7)
C49 C -0.0434(10) 1.2925(7) 0.3300(7)
H49 H -0.064377 1.232668 0.403136
C50 C 0.1717(11) 1.1584(7) 0.2806(7)
O8 O 0.0609(8) 1.5669(5) 1.0097(5)
H8A H 0.157292 1.559861 0.980431
O9 O -0.2627(8) 1.4170(6) 1.3801(6)
H9A H -0.278778 1.354719 1.437223
O10 O 0.2438(8) 1.1346(5) 1.1922(5)
H10A H 0.284432 1.066681 1.214831
O11 O 0.1750(8) 1.0907(5) 1.3797(5)
C44 C 0.0795(9) 1.2766(7) 1.2481(7)
C45 C 0.1153(10) 1.3661(7) 1.1408(6)
H45 H 0.198660 1.354455 1.086117
C46 C 0.0266(10) 1.4732(7) 1.1148(7)
C47 C -0.1013(10) 1.4904(7) 1.1944(7)
H47 H -0.163061 1.561835 1.175926
C48 C -0.1356(10) 1.3991(7) 1.3019(7)
C49 C -0.0434(10) 1.2925(7) 1.3300(7)
H49 H -0.064377 1.232668 1.403136
C50 C 0.1717(11) 1.1584(7) 1.2806(7)
O8 O 1.0609(8) 0.5669(5) 0.0097(5)
H8A H 1.157292 0.559861 -0.019569
O9 O 0.7373(8) 0.4170(6) 0.3801(6)
H9A H 0.721222 0.354719 0.437223
O10 O 1.2438(8) 0.1346(5) 0.1922(5)
H10A H 1.284432 0.066681 0.214831
O11 O 1.1750(8) 0.0907(5) 0.3797(5)
C44 C 1.0795(9) 0.2766(7) 0.2481(7)
C45 C 1.1153(10) 0.3661(7) 0.1408(6)
H45 H 1.198660 0.354455 0.086117
C46 C 1.0266(10) 0.4732(7) 0.1148(7)
C47 C 0.8987(10) 0.4904(7) 0.1944(7)
H47 H 0.836939 0.561835 0.175926
C48 C 0.8644(10) 0.3991(7) 0.3019(7)
C49 C 0.9566(10) 0.2925(7) 0.3300(7)
H49 H 0.935623 0.232668 0.403136
C50 C 1.1717(11) 0.1584(7) 0.2806(7)
O8 O 1.0609(8) 0.5669(5) 1.0097(5)
H8A H 1.157292 0.559861 0.980431
O9 O 0.7373(8) 0.4170(6) 1.3801(6)
H9A H 0.721222 0.354719 1.437223
O10 O 1.2438(8) 0.1346(5) 1.1922(5)
H10A H 1.284432 0.066681 1.214831
O11 O 1.1750(8) 0.0907(5) 1.3797(5)
C44 C 1.0795(9) 0.2766(7) 1.2481(7)
C45 C 1.1153(10) 0.3661(7) 1.1408(6)
H45 H 1.198660 0.354455 1.086117
C46 C 1.0266(10) 0.4732(7) 1.1148(7)
C47 C 0.8987(10) 0.4904(7) 1.1944(7)
H47 H 0.836939 0.561835 1.175926
C48 C 0.8644(10) 0.3991(7) 1.3019(7)
C49 C 0.9566(10) 0.2925(7) 1.3300(7)
H49 H 0.935623 0.232668 1.403136
C50 C 1.1717(11) 0.1584(7) 1.2806(7)
O8 O 1.0609(8) 1.5669(5) 0.0097(5)
H8A H 1.157292 1.559861 -0.019569
O9 O 0.7373(8) 1.4170(6) 0.3801(6)
H9A H 0.721222 1.354719 0.437223
O10 O 1.2438(8) 1.1346(5) 0.1922(5)
H10A H 1.284432 1.066681 0.214831
O11 O 1.1750(8) 1.0907(5) 0.3797(5)
C44 C 1.0795(9) 1.2766(7) 0.2481(7)
C45 C 1.1153(10) 1.3661(7) 0.1408(6)
H45 H 1.198660 1.354455 0.086117
C46 C 1.0266(10) 1.4732(7) 0.1148(7)
C47 C 0.8987(10) 1.4904(7) 0.1944(7)
H47 H 0.836939 1.561835 0.175926
C48 C 0.8644(10) 1.3991(7) 0.3019(7)
C49 C 0.9566(10) 1.2925(7) 0.3300(7)
H49 H 0.935623 1.232668 0.403136
C50 C 1.1717(11) 1.1584(7) 0.2806(7)
O8 O 1.0609(8) 1.5669(5) 1.0097(5)
H8A H 1.157292 1.559861 0.980431
O9 O 0.7373(8) 1.4170(6) 1.3801(6)
H9A H 0.721222 1.354719 1.437223
O10 O 1.2438(8) 1.1346(5) 1.1922(5)
H10A H 1.284432 1.066681 1.214831
O11 O 1.1750(8) 1.0907(5) 1.3797(5)
C44 C 1.0795(9) 1.2766(7) 1.2481(7)
C45 C 1.1153(10) 1.3661(7) 1.1408(6)
H45 H 1.198660 1.354455 1.086117
C46 C 1.0266(10) 1.4732(7) 1.1148(7)
C47 C 0.8987(10) 1.4904(7) 1.1944(7)
H47 H 0.836939 1.561835 1.175926
C48 C 0.8644(10) 1.3991(7) 1.3019(7)
C49 C 0.9566(10) 1.2925(7) 1.3300(7)
H49 H 0.935623 1.232668 1.403136
C50 C 1.1717(11) 1.1584(7) 1.2806(7)

#END
